<additional>
	<inductionLoop id='1_2_0loop' lane='1_2_0' pos='-10' freq='100' file='/home/madtitan/Desktop/Traffic-Optimisation/data/resultsOfDetectors.xml'/>
	<inductionLoop id='1_2_1loop' lane='1_2_1' pos='-10' freq='100' file='/home/madtitan/Desktop/Traffic-Optimisation/data/resultsOfDetectors.xml'/>
	<inductionLoop id='1_2_2loop' lane='1_2_2' pos='-10' freq='100' file='/home/madtitan/Desktop/Traffic-Optimisation/data/resultsOfDetectors.xml'/>
	<inductionLoop id='2_1_1loop' lane='2_1_1' pos='-10' freq='100' file='/home/madtitan/Desktop/Traffic-Optimisation/data/resultsOfDetectors.xml'/>
	<inductionLoop id='2_1_0loop' lane='2_1_0' pos='-10' freq='100' file='/home/madtitan/Desktop/Traffic-Optimisation/data/resultsOfDetectors.xml'/>
	<inductionLoop id='2_1_2loop' lane='2_1_2' pos='-10' freq='100' file='/home/madtitan/Desktop/Traffic-Optimisation/data/resultsOfDetectors.xml'/>
	<inductionLoop id='2_3_0loop' lane='2_3_0' pos='-10' freq='100' file='/home/madtitan/Desktop/Traffic-Optimisation/data/resultsOfDetectors.xml'/>
	<inductionLoop id='2_3_1loop' lane='2_3_1' pos='-10' freq='100' file='/home/madtitan/Desktop/Traffic-Optimisation/data/resultsOfDetectors.xml'/>
	<inductionLoop id='2_3_2loop' lane='2_3_2' pos='-10' freq='100' file='/home/madtitan/Desktop/Traffic-Optimisation/data/resultsOfDetectors.xml'/>
	<inductionLoop id='3_2_1loop' lane='3_2_1' pos='-10' freq='100' file='/home/madtitan/Desktop/Traffic-Optimisation/data/resultsOfDetectors.xml'/>
	<inductionLoop id='3_2_0loop' lane='3_2_0' pos='-10' freq='100' file='/home/madtitan/Desktop/Traffic-Optimisation/data/resultsOfDetectors.xml'/>
	<inductionLoop id='3_2_2loop' lane='3_2_2' pos='-10' freq='100' file='/home/madtitan/Desktop/Traffic-Optimisation/data/resultsOfDetectors.xml'/>
	<inductionLoop id='2_6_0loop' lane='2_6_0' pos='-10' freq='100' file='/home/madtitan/Desktop/Traffic-Optimisation/data/resultsOfDetectors.xml'/>
	<inductionLoop id='2_6_1loop' lane='2_6_1' pos='-10' freq='100' file='/home/madtitan/Desktop/Traffic-Optimisation/data/resultsOfDetectors.xml'/>
	<inductionLoop id='2_6_2loop' lane='2_6_2' pos='-10' freq='100' file='/home/madtitan/Desktop/Traffic-Optimisation/data/resultsOfDetectors.xml'/>
	<inductionLoop id='6_2_1loop' lane='6_2_1' pos='-10' freq='100' file='/home/madtitan/Desktop/Traffic-Optimisation/data/resultsOfDetectors.xml'/>
	<inductionLoop id='6_2_0loop' lane='6_2_0' pos='-10' freq='100' file='/home/madtitan/Desktop/Traffic-Optimisation/data/resultsOfDetectors.xml'/>
	<inductionLoop id='6_2_2loop' lane='6_2_2' pos='-10' freq='100' file='/home/madtitan/Desktop/Traffic-Optimisation/data/resultsOfDetectors.xml'/>
	<inductionLoop id='3_7_0loop' lane='3_7_0' pos='-10' freq='100' file='/home/madtitan/Desktop/Traffic-Optimisation/data/resultsOfDetectors.xml'/>
	<inductionLoop id='3_7_1loop' lane='3_7_1' pos='-10' freq='100' file='/home/madtitan/Desktop/Traffic-Optimisation/data/resultsOfDetectors.xml'/>
	<inductionLoop id='3_7_2loop' lane='3_7_2' pos='-10' freq='100' file='/home/madtitan/Desktop/Traffic-Optimisation/data/resultsOfDetectors.xml'/>
	<inductionLoop id='7_3_1loop' lane='7_3_1' pos='-10' freq='100' file='/home/madtitan/Desktop/Traffic-Optimisation/data/resultsOfDetectors.xml'/>
	<inductionLoop id='7_3_0loop' lane='7_3_0' pos='-10' freq='100' file='/home/madtitan/Desktop/Traffic-Optimisation/data/resultsOfDetectors.xml'/>
	<inductionLoop id='7_3_2loop' lane='7_3_2' pos='-10' freq='100' file='/home/madtitan/Desktop/Traffic-Optimisation/data/resultsOfDetectors.xml'/>
	<inductionLoop id='3_4_0loop' lane='3_4_0' pos='-10' freq='100' file='/home/madtitan/Desktop/Traffic-Optimisation/data/resultsOfDetectors.xml'/>
	<inductionLoop id='3_4_1loop' lane='3_4_1' pos='-10' freq='100' file='/home/madtitan/Desktop/Traffic-Optimisation/data/resultsOfDetectors.xml'/>
	<inductionLoop id='3_4_2loop' lane='3_4_2' pos='-10' freq='100' file='/home/madtitan/Desktop/Traffic-Optimisation/data/resultsOfDetectors.xml'/>
	<inductionLoop id='4_3_1loop' lane='4_3_1' pos='-10' freq='100' file='/home/madtitan/Desktop/Traffic-Optimisation/data/resultsOfDetectors.xml'/>
	<inductionLoop id='4_3_0loop' lane='4_3_0' pos='-10' freq='100' file='/home/madtitan/Desktop/Traffic-Optimisation/data/resultsOfDetectors.xml'/>
	<inductionLoop id='4_3_2loop' lane='4_3_2' pos='-10' freq='100' file='/home/madtitan/Desktop/Traffic-Optimisation/data/resultsOfDetectors.xml'/>
	<inductionLoop id='5_6_0loop' lane='5_6_0' pos='-10' freq='100' file='/home/madtitan/Desktop/Traffic-Optimisation/data/resultsOfDetectors.xml'/>
	<inductionLoop id='5_6_1loop' lane='5_6_1' pos='-10' freq='100' file='/home/madtitan/Desktop/Traffic-Optimisation/data/resultsOfDetectors.xml'/>
	<inductionLoop id='5_6_2loop' lane='5_6_2' pos='-10' freq='100' file='/home/madtitan/Desktop/Traffic-Optimisation/data/resultsOfDetectors.xml'/>
	<inductionLoop id='6_5_1loop' lane='6_5_1' pos='-10' freq='100' file='/home/madtitan/Desktop/Traffic-Optimisation/data/resultsOfDetectors.xml'/>
	<inductionLoop id='6_5_0loop' lane='6_5_0' pos='-10' freq='100' file='/home/madtitan/Desktop/Traffic-Optimisation/data/resultsOfDetectors.xml'/>
	<inductionLoop id='6_5_2loop' lane='6_5_2' pos='-10' freq='100' file='/home/madtitan/Desktop/Traffic-Optimisation/data/resultsOfDetectors.xml'/>
	<inductionLoop id='6_7_1loop' lane='6_7_1' pos='-10' freq='100' file='/home/madtitan/Desktop/Traffic-Optimisation/data/resultsOfDetectors.xml'/>
	<inductionLoop id='6_7_0loop' lane='6_7_0' pos='-10' freq='100' file='/home/madtitan/Desktop/Traffic-Optimisation/data/resultsOfDetectors.xml'/>
	<inductionLoop id='6_7_2loop' lane='6_7_2' pos='-10' freq='100' file='/home/madtitan/Desktop/Traffic-Optimisation/data/resultsOfDetectors.xml'/>
	<inductionLoop id='7_6_1loop' lane='7_6_1' pos='-10' freq='100' file='/home/madtitan/Desktop/Traffic-Optimisation/data/resultsOfDetectors.xml'/>
	<inductionLoop id='7_6_0loop' lane='7_6_0' pos='-10' freq='100' file='/home/madtitan/Desktop/Traffic-Optimisation/data/resultsOfDetectors.xml'/>
	<inductionLoop id='7_6_2loop' lane='7_6_2' pos='-10' freq='100' file='/home/madtitan/Desktop/Traffic-Optimisation/data/resultsOfDetectors.xml'/>
	<inductionLoop id='7_8_1loop' lane='7_8_1' pos='-10' freq='100' file='/home/madtitan/Desktop/Traffic-Optimisation/data/resultsOfDetectors.xml'/>
	<inductionLoop id='7_8_0loop' lane='7_8_0' pos='-10' freq='100' file='/home/madtitan/Desktop/Traffic-Optimisation/data/resultsOfDetectors.xml'/>
	<inductionLoop id='7_8_2loop' lane='7_8_2' pos='-10' freq='100' file='/home/madtitan/Desktop/Traffic-Optimisation/data/resultsOfDetectors.xml'/>
	<inductionLoop id='8_7_1loop' lane='8_7_1' pos='-10' freq='100' file='/home/madtitan/Desktop/Traffic-Optimisation/data/resultsOfDetectors.xml'/>
	<inductionLoop id='8_7_0loop' lane='8_7_0' pos='-10' freq='100' file='/home/madtitan/Desktop/Traffic-Optimisation/data/resultsOfDetectors.xml'/>
	<inductionLoop id='8_7_2loop' lane='8_7_2' pos='-10' freq='100' file='/home/madtitan/Desktop/Traffic-Optimisation/data/resultsOfDetectors.xml'/>
</additional>