<?xml version="1.0" encoding="UTF-8"?>

<!-- generated on Monday 19 November 2018 08:59:43 AM IST by Eclipse SUMO netedit Version v1_0_1+0501-1176d4f
<configuration xmlns:xsi="http://www.w3.org/2001/XMLSchema-instance" xsi:noNamespaceSchemaLocation="http://sumo.dlr.de/xsd/netconvertConfiguration.xsd">

    <input>
        <sumo-net-file value="quickstart.net.xml"/>
    </input>

    <output>
        <output-file value="quickstart.net.xml"/>
    </output>

    <processing>
        <offset.disable-normalization value="true"/>
        <lefthand value="false"/>
    </processing>

    <junctions>
        <no-internal-links value="true"/>
        <no-turnarounds value="true"/>
        <junctions.corner-detail value="5"/>
        <junctions.limit-turn-speed value="5.5"/>
        <rectangular-lane-cut value="false"/>
    </junctions>

    <pedestrian>
        <walkingareas value="false"/>
    </pedestrian>

</configuration>
-->

<net version="1.0" junctionCornerDetail="5" limitTurnSpeed="5.50" xmlns:xsi="http://www.w3.org/2001/XMLSchema-instance" xsi:noNamespaceSchemaLocation="http://sumo.dlr.de/xsd/net_file.xsd">

    <location netOffset="0.00,0.00" convBoundary="-500.00,-100.00,500.00,100.00" origBoundary="-10000000000.00,-10000000000.00,10000000000.00,10000000000.00" projParameter="!"/>

    <edge id="1_2" from="1" to="2" priority="3">
        <lane id="1_2_0" index="0" speed="13.89" length="300.00" shape="-500.00,92.00 -213.60,92.00"/>
        <lane id="1_2_1" index="1" speed="13.89" length="300.00" shape="-500.00,95.20 -213.60,95.20"/>
        <lane id="1_2_2" index="2" speed="13.89" length="300.00" shape="-500.00,98.40 -213.60,98.40"/>
    </edge>
    <edge id="2_1" from="2" to="1" priority="3">
        <lane id="2_1_0" index="0" speed="13.89" length="300.00" shape="-213.60,108.00 -500.00,108.00"/>
        <lane id="2_1_1" index="1" speed="13.89" length="300.00" shape="-213.60,104.80 -500.00,104.80"/>
        <lane id="2_1_2" index="2" speed="13.89" length="300.00" shape="-213.60,101.60 -500.00,101.60"/>
    </edge>
    <edge id="2_3" from="2" to="3" priority="4">
        <lane id="2_3_0" index="0" speed="13.89" length="400.00" shape="-186.40,92.00 186.40,92.00"/>
        <lane id="2_3_1" index="1" speed="13.89" length="400.00" shape="-186.40,95.20 186.40,95.20"/>
        <lane id="2_3_2" index="2" speed="13.89" length="400.00" shape="-186.40,98.40 186.40,98.40"/>
    </edge>
    <edge id="2_6" from="2" to="6" priority="4">
        <lane id="2_6_0" index="0" speed="13.89" length="200.00" shape="-208.00,86.40 -208.00,-86.40"/>
        <lane id="2_6_1" index="1" speed="13.89" length="200.00" shape="-204.80,86.40 -204.80,-86.40"/>
        <lane id="2_6_2" index="2" speed="13.89" length="200.00" shape="-201.60,86.40 -201.60,-86.40"/>
    </edge>
    <edge id="3_2" from="3" to="2" priority="4">
        <lane id="3_2_0" index="0" speed="13.89" length="400.00" shape="186.40,108.00 -186.40,108.00"/>
        <lane id="3_2_1" index="1" speed="13.89" length="400.00" shape="186.40,104.80 -186.40,104.80"/>
        <lane id="3_2_2" index="2" speed="13.89" length="400.00" shape="186.40,101.60 -186.40,101.60"/>
    </edge>
    <edge id="3_4" from="3" to="4" priority="3">
        <lane id="3_4_0" index="0" speed="13.89" length="300.00" shape="213.60,92.00 500.00,92.00"/>
        <lane id="3_4_1" index="1" speed="13.89" length="300.00" shape="213.60,95.20 500.00,95.20"/>
        <lane id="3_4_2" index="2" speed="13.89" length="300.00" shape="213.60,98.40 500.00,98.40"/>
    </edge>
    <edge id="3_7" from="3" to="7" priority="4">
        <lane id="3_7_0" index="0" speed="13.89" length="200.00" shape="192.00,86.40 192.00,-86.40"/>
        <lane id="3_7_1" index="1" speed="13.89" length="200.00" shape="195.20,86.40 195.20,-86.40"/>
        <lane id="3_7_2" index="2" speed="13.89" length="200.00" shape="198.40,86.40 198.40,-86.40"/>
    </edge>
    <edge id="4_3" from="4" to="3" priority="3">
        <lane id="4_3_0" index="0" speed="13.89" length="300.00" shape="500.00,108.00 213.60,108.00"/>
        <lane id="4_3_1" index="1" speed="13.89" length="300.00" shape="500.00,104.80 213.60,104.80"/>
        <lane id="4_3_2" index="2" speed="13.89" length="300.00" shape="500.00,101.60 213.60,101.60"/>
    </edge>
    <edge id="5_6" from="5" to="6" priority="3">
        <lane id="5_6_0" index="0" speed="13.89" length="300.00" shape="-500.00,-108.00 -213.60,-108.00"/>
        <lane id="5_6_1" index="1" speed="13.89" length="300.00" shape="-500.00,-104.80 -213.60,-104.80"/>
        <lane id="5_6_2" index="2" speed="13.89" length="300.00" shape="-500.00,-101.60 -213.60,-101.60"/>
    </edge>
    <edge id="6_2" from="6" to="2" priority="4">
        <lane id="6_2_0" index="0" speed="13.89" length="200.00" shape="-192.00,-86.40 -192.00,86.40"/>
        <lane id="6_2_1" index="1" speed="13.89" length="200.00" shape="-195.20,-86.40 -195.20,86.40"/>
        <lane id="6_2_2" index="2" speed="13.89" length="200.00" shape="-198.40,-86.40 -198.40,86.40"/>
    </edge>
    <edge id="6_5" from="6" to="5" priority="3">
        <lane id="6_5_0" index="0" speed="13.89" length="300.00" shape="-213.60,-92.00 -500.00,-92.00"/>
        <lane id="6_5_1" index="1" speed="13.89" length="300.00" shape="-213.60,-95.20 -500.00,-95.20"/>
        <lane id="6_5_2" index="2" speed="13.89" length="300.00" shape="-213.60,-98.40 -500.00,-98.40"/>
    </edge>
    <edge id="6_7" from="6" to="7" priority="4">
        <lane id="6_7_0" index="0" speed="13.89" length="400.00" shape="-186.40,-108.00 186.40,-108.00"/>
        <lane id="6_7_1" index="1" speed="13.89" length="400.00" shape="-186.40,-104.80 186.40,-104.80"/>
        <lane id="6_7_2" index="2" speed="13.89" length="400.00" shape="-186.40,-101.60 186.40,-101.60"/>
    </edge>
    <edge id="7_3" from="7" to="3" priority="4">
        <lane id="7_3_0" index="0" speed="13.89" length="200.00" shape="208.00,-86.40 208.00,86.40"/>
        <lane id="7_3_1" index="1" speed="13.89" length="200.00" shape="204.80,-86.40 204.80,86.40"/>
        <lane id="7_3_2" index="2" speed="13.89" length="200.00" shape="201.60,-86.40 201.60,86.40"/>
    </edge>
    <edge id="7_6" from="7" to="6" priority="4">
        <lane id="7_6_0" index="0" speed="13.89" length="400.00" shape="186.40,-92.00 -186.40,-92.00"/>
        <lane id="7_6_1" index="1" speed="13.89" length="400.00" shape="186.40,-95.20 -186.40,-95.20"/>
        <lane id="7_6_2" index="2" speed="13.89" length="400.00" shape="186.40,-98.40 -186.40,-98.40"/>
    </edge>
    <edge id="7_8" from="7" to="8" priority="3">
        <lane id="7_8_0" index="0" speed="13.89" length="300.00" shape="213.60,-108.00 500.00,-108.00"/>
        <lane id="7_8_1" index="1" speed="13.89" length="300.00" shape="213.60,-104.80 500.00,-104.80"/>
        <lane id="7_8_2" index="2" speed="13.89" length="300.00" shape="213.60,-101.60 500.00,-101.60"/>
    </edge>
    <edge id="8_7" from="8" to="7" priority="3">
        <lane id="8_7_0" index="0" speed="13.89" length="300.00" shape="500.00,-92.00 213.60,-92.00"/>
        <lane id="8_7_1" index="1" speed="13.89" length="300.00" shape="500.00,-95.20 213.60,-95.20"/>
        <lane id="8_7_2" index="2" speed="13.89" length="300.00" shape="500.00,-98.40 213.60,-98.40"/>
    </edge>

    <tlLogic id="2" type="static" programID="0" offset="0">
        <phase duration="38" state="GGggrrrrGGGG"/>
        <phase duration="3"  state="yyggrrrryyyy"/>
        <phase duration="6"  state="rrGGrrrrrrrr"/>
        <phase duration="3"  state="rryyrrrrrrrr"/>
        <phase duration="37" state="rrrrGGGGGGrr"/>
        <phase duration="3"  state="rrrryyyyyyrr"/>
    </tlLogic>
    <tlLogic id="3" type="static" programID="0" offset="0">
        <phase duration="38" state="GGggrrrrGGGG"/>
        <phase duration="3"  state="yyggrrrryyyy"/>
        <phase duration="6"  state="rrGGrrrrrrrr"/>
        <phase duration="3"  state="rryyrrrrrrrr"/>
        <phase duration="37" state="rrrrGGGGGGrr"/>
        <phase duration="3"  state="rrrryyyyyyrr"/>
    </tlLogic>
    <tlLogic id="6" type="static" programID="0" offset="0">
        <phase duration="38" state="rrrrGGGGGGgg"/>
        <phase duration="3"  state="rrrryyyyyygg"/>
        <phase duration="6"  state="rrrrrrrrrrGG"/>
        <phase duration="3"  state="rrrrrrrrrryy"/>
        <phase duration="37" state="GGGGGGrrrrrr"/>
        <phase duration="3"  state="yyyyyyrrrrrr"/>
    </tlLogic>
    <tlLogic id="7" type="static" programID="0" offset="0">
        <phase duration="38" state="rrrrGGGGGGgg"/>
        <phase duration="3"  state="rrrryyyyyygg"/>
        <phase duration="6"  state="rrrrrrrrrrGG"/>
        <phase duration="3"  state="rrrrrrrrrryy"/>
        <phase duration="37" state="GGGGGGrrrrrr"/>
        <phase duration="3"  state="yyyyyyrrrrrr"/>
    </tlLogic>

    <junction id="1" type="dead_end" x="-500.00" y="100.00" incLanes="2_1_0 2_1_1 2_1_2" intLanes="" shape="-500.00,100.00 -500.00,109.60 -500.00,100.00"/>
    <junction id="2" type="traffic_light" x="-200.00" y="100.00" incLanes="3_2_0 3_2_1 3_2_2 6_2_0 6_2_1 6_2_2 1_2_0 1_2_1 1_2_2" intLanes="" shape="-186.40,109.60 -186.40,90.40 -188.62,89.96 -189.40,89.40 -189.96,88.62 -190.29,87.62 -190.40,86.40 -209.60,86.40 -210.04,88.62 -210.60,89.40 -211.38,89.96 -212.38,90.29 -213.60,90.40 -213.60,109.60">
        <request index="0"  response="000000000000" foes="000011000000"/>
        <request index="1"  response="000000000000" foes="000011000000"/>
        <request index="2"  response="000000000000" foes="111111000000"/>
        <request index="3"  response="000000000000" foes="111111000000"/>
        <request index="4"  response="000000000000" foes="110000000000"/>
        <request index="5"  response="000000000000" foes="110000000000"/>
        <request index="6"  response="000000001111" foes="110000001111"/>
        <request index="7"  response="000000001111" foes="110000001111"/>
        <request index="8"  response="000000001100" foes="000000001100"/>
        <request index="9"  response="000000001100" foes="000000001100"/>
        <request index="10" response="000011111100" foes="000011111100"/>
        <request index="11" response="000011111100" foes="000011111100"/>
    </junction>
    <junction id="3" type="traffic_light" x="200.00" y="100.00" incLanes="4_3_0 4_3_1 4_3_2 7_3_0 7_3_1 7_3_2 2_3_0 2_3_1 2_3_2" intLanes="" shape="213.60,109.60 213.60,90.40 211.38,89.96 210.60,89.40 210.04,88.62 209.71,87.62 209.60,86.40 190.40,86.40 189.96,88.62 189.40,89.40 188.62,89.96 187.62,90.29 186.40,90.40 186.40,109.60">
        <request index="0"  response="000011000000" foes="000011000000"/>
        <request index="1"  response="000011000000" foes="000011000000"/>
        <request index="2"  response="111111000000" foes="111111000000"/>
        <request index="3"  response="111111000000" foes="111111000000"/>
        <request index="4"  response="000000000000" foes="110000000000"/>
        <request index="5"  response="000000000000" foes="110000000000"/>
        <request index="6"  response="000000000000" foes="110000001111"/>
        <request index="7"  response="000000000000" foes="110000001111"/>
        <request index="8"  response="000000000000" foes="000000001100"/>
        <request index="9"  response="000000000000" foes="000000001100"/>
        <request index="10" response="000011110000" foes="000011111100"/>
        <request index="11" response="000011110000" foes="000011111100"/>
    </junction>
    <junction id="4" type="dead_end" x="500.00" y="100.00" incLanes="3_4_0 3_4_1 3_4_2" intLanes="" shape="500.00,100.00 500.00,90.40 500.00,100.00"/>
    <junction id="5" type="dead_end" x="-500.00" y="-100.00" incLanes="6_5_0 6_5_1 6_5_2" intLanes="" shape="-500.00,-100.00 -500.00,-90.40 -500.00,-100.00"/>
    <junction id="6" type="traffic_light" x="-200.00" y="-100.00" incLanes="2_6_0 2_6_1 2_6_2 7_6_0 7_6_1 7_6_2 5_6_0 5_6_1 5_6_2" intLanes="" shape="-209.60,-86.40 -190.40,-86.40 -189.96,-88.62 -189.40,-89.40 -188.62,-89.96 -187.62,-90.29 -186.40,-90.40 -186.40,-109.60 -213.60,-109.60 -213.60,-90.40 -211.38,-89.96 -210.60,-89.40 -210.04,-88.62 -209.71,-87.62">
        <request index="0"  response="000000000000" foes="000011000000"/>
        <request index="1"  response="000000000000" foes="000011000000"/>
        <request index="2"  response="000000000000" foes="111111000000"/>
        <request index="3"  response="000000000000" foes="111111000000"/>
        <request index="4"  response="000000000000" foes="110000000000"/>
        <request index="5"  response="000000000000" foes="110000000000"/>
        <request index="6"  response="000000001111" foes="110000001111"/>
        <request index="7"  response="000000001111" foes="110000001111"/>
        <request index="8"  response="000000001100" foes="000000001100"/>
        <request index="9"  response="000000001100" foes="000000001100"/>
        <request index="10" response="000011111100" foes="000011111100"/>
        <request index="11" response="000011111100" foes="000011111100"/>
    </junction>
    <junction id="7" type="traffic_light" x="200.00" y="-100.00" incLanes="3_7_0 3_7_1 3_7_2 8_7_0 8_7_1 8_7_2 6_7_0 6_7_1 6_7_2" intLanes="" shape="190.40,-86.40 209.60,-86.40 210.04,-88.62 210.60,-89.40 211.38,-89.96 212.38,-90.29 213.60,-90.40 213.60,-109.60 186.40,-109.60 186.40,-90.40 188.62,-89.96 189.40,-89.40 189.96,-88.62 190.29,-87.62">
        <request index="0"  response="000000000000" foes="000011000000"/>
        <request index="1"  response="000000000000" foes="000011000000"/>
        <request index="2"  response="111100000000" foes="111111000000"/>
        <request index="3"  response="111100000000" foes="111111000000"/>
        <request index="4"  response="110000000000" foes="110000000000"/>
        <request index="5"  response="110000000000" foes="110000000000"/>
        <request index="6"  response="110000001111" foes="110000001111"/>
        <request index="7"  response="110000001111" foes="110000001111"/>
        <request index="8"  response="000000000000" foes="000000001100"/>
        <request index="9"  response="000000000000" foes="000000001100"/>
        <request index="10" response="000000000000" foes="000011111100"/>
        <request index="11" response="000000000000" foes="000011111100"/>
    </junction>
    <junction id="8" type="dead_end" x="500.00" y="-100.00" incLanes="7_8_0 7_8_1 7_8_2" intLanes="" shape="500.00,-100.00 500.00,-109.60 500.00,-100.00"/>

    <connection from="1_2" to="2_6" fromLane="0" toLane="0" tl="2" linkIndex="8" dir="r" state="o"/>
    <connection from="1_2" to="2_6" fromLane="1" toLane="1" tl="2" linkIndex="9" dir="r" state="o"/>
    <connection from="1_2" to="2_3" fromLane="1" toLane="1" tl="2" linkIndex="10" dir="s" state="o"/>
    <connection from="1_2" to="2_3" fromLane="2" toLane="2" tl="2" linkIndex="11" dir="s" state="o"/>
    <connection from="2_3" to="3_7" fromLane="0" toLane="0" tl="3" linkIndex="8" dir="r" state="O"/>
    <connection from="2_3" to="3_7" fromLane="1" toLane="1" tl="3" linkIndex="9" dir="r" state="O"/>
    <connection from="2_3" to="3_4" fromLane="1" toLane="1" tl="3" linkIndex="10" dir="s" state="o"/>
    <connection from="2_3" to="3_4" fromLane="2" toLane="2" tl="3" linkIndex="11" dir="s" state="o"/>
    <connection from="2_6" to="6_5" fromLane="0" toLane="0" tl="6" linkIndex="0" dir="r" state="O"/>
    <connection from="2_6" to="6_5" fromLane="1" toLane="1" tl="6" linkIndex="1" dir="r" state="O"/>
    <connection from="2_6" to="6_7" fromLane="1" toLane="1" tl="6" linkIndex="2" dir="l" state="O"/>
    <connection from="2_6" to="6_7" fromLane="2" toLane="2" tl="6" linkIndex="3" dir="l" state="O"/>
    <connection from="3_2" to="2_1" fromLane="0" toLane="0" tl="2" linkIndex="0" dir="s" state="O"/>
    <connection from="3_2" to="2_1" fromLane="1" toLane="1" tl="2" linkIndex="1" dir="s" state="O"/>
    <connection from="3_2" to="2_6" fromLane="1" toLane="1" tl="2" linkIndex="2" dir="l" state="O"/>
    <connection from="3_2" to="2_6" fromLane="2" toLane="2" tl="2" linkIndex="3" dir="l" state="O"/>
    <connection from="3_7" to="7_6" fromLane="0" toLane="0" tl="7" linkIndex="0" dir="r" state="O"/>
    <connection from="3_7" to="7_6" fromLane="1" toLane="1" tl="7" linkIndex="1" dir="r" state="O"/>
    <connection from="3_7" to="7_8" fromLane="1" toLane="1" tl="7" linkIndex="2" dir="l" state="o"/>
    <connection from="3_7" to="7_8" fromLane="2" toLane="2" tl="7" linkIndex="3" dir="l" state="o"/>
    <connection from="4_3" to="3_2" fromLane="0" toLane="0" tl="3" linkIndex="0" dir="s" state="o"/>
    <connection from="4_3" to="3_2" fromLane="1" toLane="1" tl="3" linkIndex="1" dir="s" state="o"/>
    <connection from="4_3" to="3_7" fromLane="1" toLane="1" tl="3" linkIndex="2" dir="l" state="o"/>
    <connection from="4_3" to="3_7" fromLane="2" toLane="2" tl="3" linkIndex="3" dir="l" state="o"/>
    <connection from="5_6" to="6_7" fromLane="0" toLane="0" tl="6" linkIndex="8" dir="s" state="o"/>
    <connection from="5_6" to="6_7" fromLane="1" toLane="1" tl="6" linkIndex="9" dir="s" state="o"/>
    <connection from="5_6" to="6_2" fromLane="1" toLane="1" tl="6" linkIndex="10" dir="l" state="o"/>
    <connection from="5_6" to="6_2" fromLane="2" toLane="2" tl="6" linkIndex="11" dir="l" state="o"/>
    <connection from="6_2" to="2_3" fromLane="0" toLane="0" tl="2" linkIndex="4" dir="r" state="O"/>
    <connection from="6_2" to="2_3" fromLane="1" toLane="1" tl="2" linkIndex="5" dir="r" state="O"/>
    <connection from="6_2" to="2_1" fromLane="1" toLane="1" tl="2" linkIndex="6" dir="l" state="o"/>
    <connection from="6_2" to="2_1" fromLane="2" toLane="2" tl="2" linkIndex="7" dir="l" state="o"/>
    <connection from="6_7" to="7_8" fromLane="0" toLane="0" tl="7" linkIndex="8" dir="s" state="O"/>
    <connection from="6_7" to="7_8" fromLane="1" toLane="1" tl="7" linkIndex="9" dir="s" state="O"/>
    <connection from="6_7" to="7_3" fromLane="1" toLane="1" tl="7" linkIndex="10" dir="l" state="O"/>
    <connection from="6_7" to="7_3" fromLane="2" toLane="2" tl="7" linkIndex="11" dir="l" state="O"/>
    <connection from="7_3" to="3_4" fromLane="0" toLane="0" tl="3" linkIndex="4" dir="r" state="O"/>
    <connection from="7_3" to="3_4" fromLane="1" toLane="1" tl="3" linkIndex="5" dir="r" state="O"/>
    <connection from="7_3" to="3_2" fromLane="1" toLane="1" tl="3" linkIndex="6" dir="l" state="O"/>
    <connection from="7_3" to="3_2" fromLane="2" toLane="2" tl="3" linkIndex="7" dir="l" state="O"/>
    <connection from="7_6" to="6_2" fromLane="0" toLane="0" tl="6" linkIndex="4" dir="r" state="O"/>
    <connection from="7_6" to="6_2" fromLane="1" toLane="1" tl="6" linkIndex="5" dir="r" state="O"/>
    <connection from="7_6" to="6_5" fromLane="1" toLane="1" tl="6" linkIndex="6" dir="s" state="o"/>
    <connection from="7_6" to="6_5" fromLane="2" toLane="2" tl="6" linkIndex="7" dir="s" state="o"/>
    <connection from="8_7" to="7_3" fromLane="0" toLane="0" tl="7" linkIndex="4" dir="r" state="o"/>
    <connection from="8_7" to="7_3" fromLane="1" toLane="1" tl="7" linkIndex="5" dir="r" state="o"/>
    <connection from="8_7" to="7_6" fromLane="1" toLane="1" tl="7" linkIndex="6" dir="s" state="o"/>
    <connection from="8_7" to="7_6" fromLane="2" toLane="2" tl="7" linkIndex="7" dir="s" state="o"/>

</net>
