<?xml version="1.0" encoding="UTF-8"?>

<!-- generated on Mon Oct 15 12:04:19 2018 by Eclipse SUMO duarouter Version UNKNOWN
<configuration xmlns:xsi="http://www.w3.org/2001/XMLSchema-instance" xsi:noNamespaceSchemaLocation="http://sumo.dlr.de/xsd/duarouterConfiguration.xsd">

    <input>
        <net-file value="quickstart.net.xml"/>
        <route-files value="trips.trips.xml"/>
    </input>

    <output>
        <output-file value="quickstart.rou.xml"/>
        <alternatives-output value="quickstart.rou.alt.xml"/>
    </output>

    <time>
        <begin value="0"/>
        <end value="3600"/>
    </time>

    <report>
        <no-warnings value="true"/>
        <ignore-errors value="true"/>
        <no-step-log value="true"/>
    </report>

</configuration>
-->

<routes xmlns:xsi="http://www.w3.org/2001/XMLSchema-instance" xsi:noNamespaceSchemaLocation="http://sumo.dlr.de/xsd/routes_file.xsd">
    <vehicle id="2" depart="2.00">
        <route edges="L17 L16 L10"/>
    </vehicle>
    <vehicle id="3" depart="3.00">
        <route edges="L14 L18 L5 D5"/>
    </vehicle>
    <vehicle id="5" depart="5.00">
        <route edges="L2 L12 L15 L13 L3"/>
    </vehicle>
    <vehicle id="12" depart="12.00">
        <route edges="D2 L2 L12 L15 L13 L3 D3"/>
    </vehicle>
    <vehicle id="13" depart="13.00">
        <route edges="L13 L3"/>
    </vehicle>
    <vehicle id="15" depart="15.00">
        <route edges="L12 L15 L13"/>
    </vehicle>
    <vehicle id="16" depart="16.00">
        <route edges="D6 L6 L17 L16 L10 L7"/>
    </vehicle>
    <vehicle id="17" depart="17.00">
        <route edges="L14 L16 L11 L1"/>
    </vehicle>
    <vehicle id="18" depart="18.00">
        <route edges="L14 L16"/>
    </vehicle>
    <vehicle id="25" depart="25.00">
        <route edges="L16"/>
    </vehicle>
    <vehicle id="26" depart="26.00">
        <route edges="L12 L15 L13 L3 D3"/>
    </vehicle>
    <vehicle id="27" depart="27.00">
        <route edges="L2 L12 L15 L13"/>
    </vehicle>
    <vehicle id="32" depart="32.00">
        <route edges="L8 L9 L15 L13"/>
    </vehicle>
    <vehicle id="33" depart="33.00">
        <route edges="L17 L16 L11 L1"/>
    </vehicle>
    <vehicle id="35" depart="35.00">
        <route edges="L10 L7"/>
    </vehicle>
    <vehicle id="36" depart="36.00">
        <route edges="L9 L15 L13 L3"/>
    </vehicle>
    <vehicle id="41" depart="41.00">
        <route edges="L4 L14 L18 L5"/>
    </vehicle>
    <vehicle id="46" depart="46.00">
        <route edges="D2 L2 L12 L15 L13"/>
    </vehicle>
    <vehicle id="47" depart="47.00">
        <route edges="D6 L6 L17 L16 L10"/>
    </vehicle>
    <vehicle id="48" depart="48.00">
        <route edges="L12 L15 L13"/>
    </vehicle>
    <vehicle id="49" depart="49.00">
        <route edges="L10"/>
    </vehicle>
    <vehicle id="52" depart="52.00">
        <route edges="L6 L17 L13"/>
    </vehicle>
    <vehicle id="55" depart="55.00">
        <route edges="L14 L16 L10 L7"/>
    </vehicle>
    <vehicle id="57" depart="57.00">
        <route edges="L16 L10"/>
    </vehicle>
    <vehicle id="59" depart="59.00">
        <route edges="D8 L8 L9 L11 L1"/>
    </vehicle>
    <vehicle id="60" depart="60.00">
        <route edges="L17 L13"/>
    </vehicle>
    <vehicle id="65" depart="65.00">
        <route edges="L6 L17 L13"/>
    </vehicle>
    <vehicle id="66" depart="66.00">
        <route edges="D4 L4 L14 L18 L5"/>
    </vehicle>
    <vehicle id="67" depart="67.00">
        <route edges="L16 L10 L7 D7"/>
    </vehicle>
    <vehicle id="69" depart="69.00">
        <route edges="L2 L12 L15 L18 L5"/>
    </vehicle>
    <vehicle id="72" depart="72.00">
        <route edges="L16 L11 L1 D1"/>
    </vehicle>
    <vehicle id="74" depart="74.00">
        <route edges="L2 L12 L15"/>
    </vehicle>
    <vehicle id="77" depart="77.00">
        <route edges="L6 L17 L16 L10 L7"/>
    </vehicle>
    <vehicle id="79" depart="79.00">
        <route edges="L1 D1"/>
    </vehicle>
    <vehicle id="82" depart="82.00">
        <route edges="L17 L13 L3 D3"/>
    </vehicle>
    <vehicle id="83" depart="83.00">
        <route edges="L6 L17 L16 L11 L1 D1"/>
    </vehicle>
    <vehicle id="86" depart="86.00">
        <route edges="L6 L17 L16 L10"/>
    </vehicle>
    <vehicle id="96" depart="96.00">
        <route edges="L12 L15 L13 L3 D3"/>
    </vehicle>
    <vehicle id="99" depart="99.00">
        <route edges="L3"/>
    </vehicle>
    <vehicle id="102" depart="102.00">
        <route edges="L12 L15"/>
    </vehicle>
    <vehicle id="113" depart="113.00">
        <route edges="L1"/>
    </vehicle>
    <vehicle id="117" depart="117.00">
        <route edges="L4 L14 L18 L5"/>
    </vehicle>
    <vehicle id="120" depart="120.00">
        <route edges="L18 L5 D5"/>
    </vehicle>
    <vehicle id="121" depart="121.00">
        <route edges="L4 L14 L16"/>
    </vehicle>
    <vehicle id="122" depart="122.00">
        <route edges="L6 L17 L16 L10 L7"/>
    </vehicle>
    <vehicle id="125" depart="125.00">
        <route edges="D2 L2 L12 L10 L7"/>
    </vehicle>
    <vehicle id="127" depart="127.00">
        <route edges="L9 L15 L18 L5 D5"/>
    </vehicle>
    <vehicle id="129" depart="129.00">
        <route edges="D2 L2 L12 L15 L13"/>
    </vehicle>
    <vehicle id="130" depart="130.00">
        <route edges="L2 L12"/>
    </vehicle>
    <vehicle id="132" depart="132.00">
        <route edges="L14 L16 L11 L1"/>
    </vehicle>
    <vehicle id="139" depart="139.00">
        <route edges="D2 L2 L12 L15"/>
    </vehicle>
    <vehicle id="144" depart="144.00">
        <route edges="L15 L13 L3 D3"/>
    </vehicle>
    <vehicle id="146" depart="146.00">
        <route edges="L12 L10"/>
    </vehicle>
    <vehicle id="147" depart="147.00">
        <route edges="D2 L2 L12 L10 L7"/>
    </vehicle>
    <vehicle id="155" depart="155.00">
        <route edges="D4 L4 L14"/>
    </vehicle>
    <vehicle id="156" depart="156.00">
        <route edges="L3 D3"/>
    </vehicle>
    <vehicle id="170" depart="170.00">
        <route edges="L12 L15"/>
    </vehicle>
    <vehicle id="171" depart="171.00">
        <route edges="D6 L6 L17 L16 L11"/>
    </vehicle>
    <vehicle id="172" depart="172.00">
        <route edges="L14 L16 L10"/>
    </vehicle>
    <vehicle id="173" depart="173.00">
        <route edges="D2 L2 L12 L15 L18 L5"/>
    </vehicle>
    <vehicle id="178" depart="178.00">
        <route edges="D2 L2 L12 L10 L7 D7"/>
    </vehicle>
    <vehicle id="179" depart="179.00">
        <route edges="L12 L15 L13 L3"/>
    </vehicle>
    <vehicle id="180" depart="180.00">
        <route edges="L13 L3"/>
    </vehicle>
    <vehicle id="181" depart="181.00">
        <route edges="L13"/>
    </vehicle>
    <vehicle id="187" depart="187.00">
        <route edges="L17 L13"/>
    </vehicle>
    <vehicle id="188" depart="188.00">
        <route edges="L16 L10 L7 D7"/>
    </vehicle>
    <vehicle id="189" depart="189.00">
        <route edges="D2 L2 L12 L15 L18 L5 D5"/>
    </vehicle>
    <vehicle id="193" depart="193.00">
        <route edges="L6 L17 L13"/>
    </vehicle>
    <vehicle id="194" depart="194.00">
        <route edges="L4"/>
    </vehicle>
    <vehicle id="198" depart="198.00">
        <route edges="L5 D5"/>
    </vehicle>
    <vehicle id="208" depart="208.00">
        <route edges="L12 L15 L18 L5 D5"/>
    </vehicle>
    <vehicle id="209" depart="209.00">
        <route edges="L16 L10"/>
    </vehicle>
    <vehicle id="210" depart="210.00">
        <route edges="L5 D5"/>
    </vehicle>
    <vehicle id="212" depart="212.00">
        <route edges="L4 L14 L16 L10 L7"/>
    </vehicle>
    <vehicle id="213" depart="213.00">
        <route edges="L16 L11 L1 D1"/>
    </vehicle>
    <vehicle id="219" depart="219.00">
        <route edges="D2 L2 L12 L15 L13"/>
    </vehicle>
    <vehicle id="221" depart="221.00">
        <route edges="L6 L17 L13 L3"/>
    </vehicle>
    <vehicle id="232" depart="232.00">
        <route edges="L15"/>
    </vehicle>
    <vehicle id="239" depart="239.00">
        <route edges="L9 L15 L18 L5 D5"/>
    </vehicle>
    <vehicle id="240" depart="240.00">
        <route edges="L15 L18 L5"/>
    </vehicle>
    <vehicle id="243" depart="243.00">
        <route edges="L17 L16 L10"/>
    </vehicle>
    <vehicle id="249" depart="249.00">
        <route edges="L7"/>
    </vehicle>
    <vehicle id="250" depart="250.00">
        <route edges="D4 L4"/>
    </vehicle>
    <vehicle id="251" depart="251.00">
        <route edges="D2 L2"/>
    </vehicle>
    <vehicle id="256" depart="256.00">
        <route edges="L16 L11 L1 D1"/>
    </vehicle>
    <vehicle id="258" depart="258.00">
        <route edges="D2 L2 L12 L15 L18 L5 D5"/>
    </vehicle>
    <vehicle id="265" depart="265.00">
        <route edges="D6 L6 L17 L16 L10 L7"/>
    </vehicle>
    <vehicle id="269" depart="269.00">
        <route edges="L14"/>
    </vehicle>
    <vehicle id="270" depart="270.00">
        <route edges="L17 L16 L11 L1"/>
    </vehicle>
    <vehicle id="278" depart="278.00">
        <route edges="D8 L8 L9 L11 L1 D1"/>
    </vehicle>
    <vehicle id="281" depart="281.00">
        <route edges="D8 L8 L9"/>
    </vehicle>
    <vehicle id="282" depart="282.00">
        <route edges="L14 L16"/>
    </vehicle>
    <vehicle id="285" depart="285.00">
        <route edges="L15 L13 L3 D3"/>
    </vehicle>
    <vehicle id="290" depart="290.00">
        <route edges="D4 L4 L14 L18 L5"/>
    </vehicle>
    <vehicle id="296" depart="296.00">
        <route edges="L8"/>
    </vehicle>
    <vehicle id="304" depart="304.00">
        <route edges="L4 L14 L18 L5"/>
    </vehicle>
    <vehicle id="308" depart="308.00">
        <route edges="L16 L11"/>
    </vehicle>
    <vehicle id="310" depart="310.00">
        <route edges="D8 L8 L9 L15 L13"/>
    </vehicle>
    <vehicle id="311" depart="311.00">
        <route edges="D6 L6"/>
    </vehicle>
    <vehicle id="315" depart="315.00">
        <route edges="L14 L16 L10 L7"/>
    </vehicle>
    <vehicle id="321" depart="321.00">
        <route edges="L17 L16 L11 L1 D1"/>
    </vehicle>
    <vehicle id="323" depart="323.00">
        <route edges="L17 L16 L11"/>
    </vehicle>
    <vehicle id="326" depart="326.00">
        <route edges="L13 L3"/>
    </vehicle>
    <vehicle id="327" depart="327.00">
        <route edges="L9 L15 L18 L5 D5"/>
    </vehicle>
    <vehicle id="330" depart="330.00">
        <route edges="D8 L8 L9 L15"/>
    </vehicle>
    <vehicle id="331" depart="331.00">
        <route edges="D8 L8 L9 L15 L13"/>
    </vehicle>
    <vehicle id="333" depart="333.00">
        <route edges="L10"/>
    </vehicle>
    <vehicle id="338" depart="338.00">
        <route edges="L2 L12 L10 L7"/>
    </vehicle>
    <vehicle id="340" depart="340.00">
        <route edges="D2 L2 L12 L15 L18 L5"/>
    </vehicle>
    <vehicle id="341" depart="341.00">
        <route edges="L4 L14 L16 L11 L1"/>
    </vehicle>
    <vehicle id="342" depart="342.00">
        <route edges="L8 L9 L11 L1"/>
    </vehicle>
    <vehicle id="345" depart="345.00">
        <route edges="L8 L9 L11 L1"/>
    </vehicle>
    <vehicle id="347" depart="347.00">
        <route edges="L8 L9"/>
    </vehicle>
    <vehicle id="349" depart="349.00">
        <route edges="D4 L4 L14 L16"/>
    </vehicle>
    <vehicle id="350" depart="350.00">
        <route edges="D8 L8 L9 L15 L13"/>
    </vehicle>
    <vehicle id="351" depart="351.00">
        <route edges="L12 L10 L7"/>
    </vehicle>
    <vehicle id="353" depart="353.00">
        <route edges="L2 L12 L15 L13"/>
    </vehicle>
    <vehicle id="356" depart="356.00">
        <route edges="L17 L13 L3"/>
    </vehicle>
    <vehicle id="358" depart="358.00">
        <route edges="L4 L14 L16 L10"/>
    </vehicle>
    <vehicle id="360" depart="360.00">
        <route edges="L8 L9 L15 L18 L5 D5"/>
    </vehicle>
    <vehicle id="369" depart="369.00">
        <route edges="L9 L15 L18"/>
    </vehicle>
    <vehicle id="372" depart="372.00">
        <route edges="L16 L10 L7"/>
    </vehicle>
    <vehicle id="374" depart="374.00">
        <route edges="D4 L4 L14 L16"/>
    </vehicle>
    <vehicle id="379" depart="379.00">
        <route edges="L9 L11"/>
    </vehicle>
    <vehicle id="385" depart="385.00">
        <route edges="L4 L14 L16 L10 L7 D7"/>
    </vehicle>
    <vehicle id="386" depart="386.00">
        <route edges="L4 L14 L16 L11 L1"/>
    </vehicle>
    <vehicle id="387" depart="387.00">
        <route edges="L11 L1"/>
    </vehicle>
    <vehicle id="388" depart="388.00">
        <route edges="D2 L2 L12 L15 L13 L3"/>
    </vehicle>
    <vehicle id="390" depart="390.00">
        <route edges="L14 L16 L11"/>
    </vehicle>
    <vehicle id="391" depart="391.00">
        <route edges="L4 L14 L16 L10 L7"/>
    </vehicle>
    <vehicle id="392" depart="392.00">
        <route edges="L17 L13"/>
    </vehicle>
    <vehicle id="393" depart="393.00">
        <route edges="D8 L8 L9 L15 L13 L3 D3"/>
    </vehicle>
    <vehicle id="394" depart="394.00">
        <route edges="L2 L12 L15 L18"/>
    </vehicle>
    <vehicle id="399" depart="399.00">
        <route edges="D2 L2 L12 L15 L18 L5"/>
    </vehicle>
    <vehicle id="403" depart="403.00">
        <route edges="L16 L10 L7 D7"/>
    </vehicle>
    <vehicle id="414" depart="414.00">
        <route edges="L16 L10 L7"/>
    </vehicle>
    <vehicle id="415" depart="415.00">
        <route edges="D4 L4 L14 L16 L11"/>
    </vehicle>
    <vehicle id="416" depart="416.00">
        <route edges="D4 L4 L14 L16 L11 L1"/>
    </vehicle>
    <vehicle id="419" depart="419.00">
        <route edges="L12 L15 L13 L3 D3"/>
    </vehicle>
    <vehicle id="421" depart="421.00">
        <route edges="D2 L2 L12"/>
    </vehicle>
    <vehicle id="422" depart="422.00">
        <route edges="L16 L10 L7 D7"/>
    </vehicle>
    <vehicle id="424" depart="424.00">
        <route edges="D2 L2 L12 L10 L7 D7"/>
    </vehicle>
    <vehicle id="426" depart="426.00">
        <route edges="L9 L11 L1 D1"/>
    </vehicle>
    <vehicle id="429" depart="429.00">
        <route edges="D4 L4 L14 L16 L11"/>
    </vehicle>
    <vehicle id="430" depart="430.00">
        <route edges="D2 L2 L12 L15 L18"/>
    </vehicle>
    <vehicle id="432" depart="432.00">
        <route edges="L2"/>
    </vehicle>
    <vehicle id="435" depart="435.00">
        <route edges="L4 L14 L16"/>
    </vehicle>
    <vehicle id="437" depart="437.00">
        <route edges="L12 L15"/>
    </vehicle>
    <vehicle id="438" depart="438.00">
        <route edges="D4 L4 L14"/>
    </vehicle>
    <vehicle id="440" depart="440.00">
        <route edges="D2 L2 L12"/>
    </vehicle>
    <vehicle id="442" depart="442.00">
        <route edges="L16 L10 L7 D7"/>
    </vehicle>
    <vehicle id="446" depart="446.00">
        <route edges="L9 L11"/>
    </vehicle>
    <vehicle id="448" depart="448.00">
        <route edges="L18"/>
    </vehicle>
    <vehicle id="451" depart="451.00">
        <route edges="L4 L14 L16 L11"/>
    </vehicle>
    <vehicle id="452" depart="452.00">
        <route edges="L2 L12 L10 L7 D7"/>
    </vehicle>
    <vehicle id="463" depart="463.00">
        <route edges="L10 L7"/>
    </vehicle>
    <vehicle id="464" depart="464.00">
        <route edges="D6 L6 L17 L16"/>
    </vehicle>
    <vehicle id="465" depart="465.00">
        <route edges="L18 L5"/>
    </vehicle>
    <vehicle id="466" depart="466.00">
        <route edges="L2 L12 L15 L13"/>
    </vehicle>
    <vehicle id="467" depart="467.00">
        <route edges="D8 L8 L9 L15 L18 L5"/>
    </vehicle>
    <vehicle id="468" depart="468.00">
        <route edges="L17 L16 L10 L7"/>
    </vehicle>
    <vehicle id="472" depart="472.00">
        <route edges="D8 L8 L9 L11 L1"/>
    </vehicle>
    <vehicle id="476" depart="476.00">
        <route edges="L15 L18 L5"/>
    </vehicle>
    <vehicle id="478" depart="478.00">
        <route edges="L14 L16 L10 L7 D7"/>
    </vehicle>
    <vehicle id="481" depart="481.00">
        <route edges="D6 L6 L17 L16 L10 L7"/>
    </vehicle>
    <vehicle id="482" depart="482.00">
        <route edges="L17 L13 L3 D3"/>
    </vehicle>
    <vehicle id="485" depart="485.00">
        <route edges="D8 L8 L9 L15 L18 L5"/>
    </vehicle>
    <vehicle id="486" depart="486.00">
        <route edges="L12"/>
    </vehicle>
    <vehicle id="489" depart="489.00">
        <route edges="D6 L6 L17 L13 L3"/>
    </vehicle>
    <vehicle id="492" depart="492.00">
        <route edges="L16 L10 L7"/>
    </vehicle>
    <vehicle id="494" depart="494.00">
        <route edges="L2 L12 L15 L13 L3 D3"/>
    </vehicle>
    <vehicle id="500" depart="500.00">
        <route edges="D4 L4 L14 L16 L11 L1 D1"/>
    </vehicle>
    <vehicle id="501" depart="501.00">
        <route edges="L8 L9 L15 L13 L3"/>
    </vehicle>
    <vehicle id="506" depart="506.00">
        <route edges="L2 L12 L15 L13 L3 D3"/>
    </vehicle>
    <vehicle id="509" depart="509.00">
        <route edges="L14 L18 L5 D5"/>
    </vehicle>
    <vehicle id="511" depart="511.00">
        <route edges="L16 L10 L7 D7"/>
    </vehicle>
    <vehicle id="513" depart="513.00">
        <route edges="L8 L9 L11 L1 D1"/>
    </vehicle>
    <vehicle id="514" depart="514.00">
        <route edges="L2 L12 L15 L18"/>
    </vehicle>
    <vehicle id="515" depart="515.00">
        <route edges="L17 L13 L3"/>
    </vehicle>
    <vehicle id="517" depart="517.00">
        <route edges="L12 L15 L13 L3 D3"/>
    </vehicle>
    <vehicle id="518" depart="518.00">
        <route edges="L14 L16 L11 L1"/>
    </vehicle>
    <vehicle id="519" depart="519.00">
        <route edges="D4 L4"/>
    </vehicle>
    <vehicle id="526" depart="526.00">
        <route edges="L4 L14 L16 L11 L1 D1"/>
    </vehicle>
    <vehicle id="528" depart="528.00">
        <route edges="L8"/>
    </vehicle>
    <vehicle id="529" depart="529.00">
        <route edges="L4 L14 L16 L11 L1"/>
    </vehicle>
    <vehicle id="532" depart="532.00">
        <route edges="L4 L14 L16 L10"/>
    </vehicle>
    <vehicle id="535" depart="535.00">
        <route edges="D8 L8 L9 L15 L13 L3 D3"/>
    </vehicle>
    <vehicle id="537" depart="537.00">
        <route edges="L16 L11"/>
    </vehicle>
    <vehicle id="539" depart="539.00">
        <route edges="L12 L10"/>
    </vehicle>
    <vehicle id="540" depart="540.00">
        <route edges="L18 L5"/>
    </vehicle>
    <vehicle id="552" depart="552.00">
        <route edges="D6 L6 L17 L16 L11"/>
    </vehicle>
    <vehicle id="554" depart="554.00">
        <route edges="L14 L18"/>
    </vehicle>
    <vehicle id="557" depart="557.00">
        <route edges="L4 L14 L16 L11"/>
    </vehicle>
    <vehicle id="558" depart="558.00">
        <route edges="L9 L15 L13"/>
    </vehicle>
    <vehicle id="565" depart="565.00">
        <route edges="D4 L4 L14"/>
    </vehicle>
    <vehicle id="567" depart="567.00">
        <route edges="L1"/>
    </vehicle>
    <vehicle id="572" depart="572.00">
        <route edges="L17 L16 L11 L1 D1"/>
    </vehicle>
    <vehicle id="573" depart="573.00">
        <route edges="L2 L12 L15 L18 L5 D5"/>
    </vehicle>
    <vehicle id="574" depart="574.00">
        <route edges="L4 L14 L16 L10 L7"/>
    </vehicle>
    <vehicle id="579" depart="579.00">
        <route edges="L15 L13 L3 D3"/>
    </vehicle>
    <vehicle id="581" depart="581.00">
        <route edges="L4 L14 L16 L11"/>
    </vehicle>
    <vehicle id="582" depart="582.00">
        <route edges="D4 L4 L14 L16 L10"/>
    </vehicle>
    <vehicle id="583" depart="583.00">
        <route edges="D6 L6"/>
    </vehicle>
    <vehicle id="584" depart="584.00">
        <route edges="L9 L15 L13 L3 D3"/>
    </vehicle>
    <vehicle id="586" depart="586.00">
        <route edges="D6 L6 L17 L16 L11"/>
    </vehicle>
    <vehicle id="587" depart="587.00">
        <route edges="L12 L10 L7 D7"/>
    </vehicle>
    <vehicle id="588" depart="588.00">
        <route edges="L16 L11"/>
    </vehicle>
    <vehicle id="590" depart="590.00">
        <route edges="L14 L16"/>
    </vehicle>
    <vehicle id="595" depart="595.00">
        <route edges="D8 L8 L9"/>
    </vehicle>
    <vehicle id="597" depart="597.00">
        <route edges="L12 L15 L18 L5"/>
    </vehicle>
    <vehicle id="598" depart="598.00">
        <route edges="L10"/>
    </vehicle>
    <vehicle id="599" depart="599.00">
        <route edges="L9 L11"/>
    </vehicle>
    <vehicle id="608" depart="608.00">
        <route edges="L12 L15 L18 L5"/>
    </vehicle>
    <vehicle id="612" depart="612.00">
        <route edges="L12 L10 L7"/>
    </vehicle>
    <vehicle id="615" depart="615.00">
        <route edges="L11 L1 D1"/>
    </vehicle>
    <vehicle id="617" depart="617.00">
        <route edges="L6 L17 L13 L3"/>
    </vehicle>
    <vehicle id="622" depart="622.00">
        <route edges="L10 L7"/>
    </vehicle>
    <vehicle id="628" depart="628.00">
        <route edges="L4 L14 L16 L10 L7 D7"/>
    </vehicle>
    <vehicle id="639" depart="639.00">
        <route edges="L8 L9 L15 L13 L3 D3"/>
    </vehicle>
    <vehicle id="640" depart="640.00">
        <route edges="D8 L8 L9 L15 L18"/>
    </vehicle>
    <vehicle id="642" depart="642.00">
        <route edges="D2 L2 L12 L15 L13 L3"/>
    </vehicle>
    <vehicle id="643" depart="643.00">
        <route edges="D4 L4 L14"/>
    </vehicle>
    <vehicle id="649" depart="649.00">
        <route edges="L4 L14 L16"/>
    </vehicle>
    <vehicle id="650" depart="650.00">
        <route edges="L16 L10"/>
    </vehicle>
    <vehicle id="651" depart="651.00">
        <route edges="D8 L8 L9 L15 L13"/>
    </vehicle>
    <vehicle id="652" depart="652.00">
        <route edges="L8 L9 L15 L18 L5 D5"/>
    </vehicle>
    <vehicle id="653" depart="653.00">
        <route edges="L14 L18"/>
    </vehicle>
    <vehicle id="657" depart="657.00">
        <route edges="L2 L12 L10 L7"/>
    </vehicle>
    <vehicle id="658" depart="658.00">
        <route edges="D4 L4 L14 L16 L11 L1"/>
    </vehicle>
    <vehicle id="660" depart="660.00">
        <route edges="L12 L15 L13"/>
    </vehicle>
    <vehicle id="661" depart="661.00">
        <route edges="D8 L8 L9 L11 L1"/>
    </vehicle>
    <vehicle id="664" depart="664.00">
        <route edges="L4 L14 L16 L11 L1 D1"/>
    </vehicle>
    <vehicle id="669" depart="669.00">
        <route edges="D2 L2 L12 L15 L18 L5 D5"/>
    </vehicle>
    <vehicle id="672" depart="672.00">
        <route edges="L15 L13"/>
    </vehicle>
    <vehicle id="675" depart="675.00">
        <route edges="D6 L6 L17 L13 L3 D3"/>
    </vehicle>
    <vehicle id="684" depart="684.00">
        <route edges="L9"/>
    </vehicle>
    <vehicle id="685" depart="685.00">
        <route edges="D8 L8 L9 L11 L1 D1"/>
    </vehicle>
    <vehicle id="687" depart="687.00">
        <route edges="L14"/>
    </vehicle>
    <vehicle id="694" depart="694.00">
        <route edges="D8 L8 L9 L15 L18"/>
    </vehicle>
    <vehicle id="695" depart="695.00">
        <route edges="L6"/>
    </vehicle>
    <vehicle id="697" depart="697.00">
        <route edges="D6 L6 L17 L16 L11 L1 D1"/>
    </vehicle>
    <vehicle id="702" depart="702.00">
        <route edges="L16 L11 L1"/>
    </vehicle>
    <vehicle id="703" depart="703.00">
        <route edges="L18"/>
    </vehicle>
    <vehicle id="704" depart="704.00">
        <route edges="L8 L9 L15 L13"/>
    </vehicle>
    <vehicle id="705" depart="705.00">
        <route edges="D6 L6 L17 L16 L11 L1 D1"/>
    </vehicle>
    <vehicle id="707" depart="707.00">
        <route edges="L18"/>
    </vehicle>
    <vehicle id="708" depart="708.00">
        <route edges="L12 L15 L18"/>
    </vehicle>
    <vehicle id="709" depart="709.00">
        <route edges="L12 L15 L18 L5 D5"/>
    </vehicle>
    <vehicle id="712" depart="712.00">
        <route edges="D2 L2 L12 L15 L13"/>
    </vehicle>
    <vehicle id="715" depart="715.00">
        <route edges="L15 L13"/>
    </vehicle>
    <vehicle id="718" depart="718.00">
        <route edges="L13 L3 D3"/>
    </vehicle>
    <vehicle id="721" depart="721.00">
        <route edges="L11 L1"/>
    </vehicle>
    <vehicle id="722" depart="722.00">
        <route edges="D6 L6 L17 L16 L10 L7 D7"/>
    </vehicle>
    <vehicle id="723" depart="723.00">
        <route edges="L16 L10"/>
    </vehicle>
    <vehicle id="729" depart="729.00">
        <route edges="L9 L11 L1 D1"/>
    </vehicle>
    <vehicle id="731" depart="731.00">
        <route edges="L17 L16 L11 L1"/>
    </vehicle>
    <vehicle id="733" depart="733.00">
        <route edges="D2 L2"/>
    </vehicle>
    <vehicle id="736" depart="736.00">
        <route edges="D6 L6 L17 L16 L11"/>
    </vehicle>
    <vehicle id="741" depart="741.00">
        <route edges="L6 L17 L13 L3 D3"/>
    </vehicle>
    <vehicle id="742" depart="742.00">
        <route edges="D6 L6 L17 L13 L3"/>
    </vehicle>
    <vehicle id="743" depart="743.00">
        <route edges="L3"/>
    </vehicle>
    <vehicle id="746" depart="746.00">
        <route edges="L6 L17 L13 L3"/>
    </vehicle>
    <vehicle id="747" depart="747.00">
        <route edges="D4 L4 L14 L16 L11"/>
    </vehicle>
    <vehicle id="751" depart="751.00">
        <route edges="D6 L6 L17 L16 L10 L7 D7"/>
    </vehicle>
    <vehicle id="752" depart="752.00">
        <route edges="L12 L10 L7"/>
    </vehicle>
    <vehicle id="754" depart="754.00">
        <route edges="L9 L15 L18 L5"/>
    </vehicle>
    <vehicle id="755" depart="755.00">
        <route edges="D2 L2 L12 L10"/>
    </vehicle>
    <vehicle id="756" depart="756.00">
        <route edges="D6 L6 L17 L13 L3"/>
    </vehicle>
    <vehicle id="759" depart="759.00">
        <route edges="D4 L4 L14 L16 L10 L7"/>
    </vehicle>
    <vehicle id="760" depart="760.00">
        <route edges="L9 L11"/>
    </vehicle>
    <vehicle id="762" depart="762.00">
        <route edges="L8 L9 L11 L1 D1"/>
    </vehicle>
    <vehicle id="763" depart="763.00">
        <route edges="L8 L9 L11 L1 D1"/>
    </vehicle>
    <vehicle id="766" depart="766.00">
        <route edges="D8 L8 L9 L15 L18 L5"/>
    </vehicle>
    <vehicle id="768" depart="768.00">
        <route edges="L9 L11 L1"/>
    </vehicle>
    <vehicle id="769" depart="769.00">
        <route edges="L4"/>
    </vehicle>
    <vehicle id="775" depart="775.00">
        <route edges="L3 D3"/>
    </vehicle>
    <vehicle id="781" depart="781.00">
        <route edges="L8 L9 L11 L1 D1"/>
    </vehicle>
    <vehicle id="788" depart="788.00">
        <route edges="L14 L18"/>
    </vehicle>
    <vehicle id="791" depart="791.00">
        <route edges="L14 L18 L5"/>
    </vehicle>
    <vehicle id="796" depart="796.00">
        <route edges="L2 L12 L15"/>
    </vehicle>
    <vehicle id="798" depart="798.00">
        <route edges="D8 L8 L9 L15 L13 L3 D3"/>
    </vehicle>
    <vehicle id="799" depart="799.00">
        <route edges="L6 L17 L16 L11 L1"/>
    </vehicle>
    <vehicle id="801" depart="801.00">
        <route edges="L4 L14 L18 L5"/>
    </vehicle>
    <vehicle id="802" depart="802.00">
        <route edges="D8 L8 L9 L15 L13"/>
    </vehicle>
    <vehicle id="806" depart="806.00">
        <route edges="D6 L6 L17 L16 L11"/>
    </vehicle>
    <vehicle id="807" depart="807.00">
        <route edges="L14 L16 L11 L1 D1"/>
    </vehicle>
    <vehicle id="808" depart="808.00">
        <route edges="L5 D5"/>
    </vehicle>
    <vehicle id="813" depart="813.00">
        <route edges="D2 L2 L12 L10 L7 D7"/>
    </vehicle>
    <vehicle id="814" depart="814.00">
        <route edges="D6 L6 L17 L16 L11 L1"/>
    </vehicle>
    <vehicle id="815" depart="815.00">
        <route edges="L12 L15 L13"/>
    </vehicle>
    <vehicle id="816" depart="816.00">
        <route edges="L4 L14 L18 L5 D5"/>
    </vehicle>
    <vehicle id="820" depart="820.00">
        <route edges="D2 L2 L12 L10 L7 D7"/>
    </vehicle>
    <vehicle id="824" depart="824.00">
        <route edges="D2 L2 L12 L10 L7"/>
    </vehicle>
    <vehicle id="826" depart="826.00">
        <route edges="L12 L15 L13"/>
    </vehicle>
    <vehicle id="829" depart="829.00">
        <route edges="D2 L2 L12 L15 L18 L5"/>
    </vehicle>
    <vehicle id="830" depart="830.00">
        <route edges="L2 L12 L10"/>
    </vehicle>
    <vehicle id="831" depart="831.00">
        <route edges="L6"/>
    </vehicle>
    <vehicle id="832" depart="832.00">
        <route edges="L4 L14 L18 L5"/>
    </vehicle>
    <vehicle id="836" depart="836.00">
        <route edges="L16 L11"/>
    </vehicle>
    <vehicle id="844" depart="844.00">
        <route edges="D6 L6 L17 L16 L10 L7 D7"/>
    </vehicle>
    <vehicle id="847" depart="847.00">
        <route edges="D8 L8 L9 L15 L18"/>
    </vehicle>
    <vehicle id="848" depart="848.00">
        <route edges="L9 L11 L1 D1"/>
    </vehicle>
    <vehicle id="853" depart="853.00">
        <route edges="L17 L16 L10"/>
    </vehicle>
    <vehicle id="857" depart="857.00">
        <route edges="D6 L6 L17 L13 L3 D3"/>
    </vehicle>
    <vehicle id="859" depart="859.00">
        <route edges="D8 L8 L9 L15 L18 L5 D5"/>
    </vehicle>
    <vehicle id="861" depart="861.00">
        <route edges="L14 L18"/>
    </vehicle>
    <vehicle id="863" depart="863.00">
        <route edges="L14 L16 L10 L7"/>
    </vehicle>
    <vehicle id="869" depart="869.00">
        <route edges="L8 L9 L15 L13 L3 D3"/>
    </vehicle>
    <vehicle id="871" depart="871.00">
        <route edges="L10 L7 D7"/>
    </vehicle>
    <vehicle id="872" depart="872.00">
        <route edges="L17 L16 L11 L1"/>
    </vehicle>
    <vehicle id="874" depart="874.00">
        <route edges="D4 L4 L14 L18 L5 D5"/>
    </vehicle>
    <vehicle id="878" depart="878.00">
        <route edges="L9 L15 L13 L3"/>
    </vehicle>
    <vehicle id="879" depart="879.00">
        <route edges="L8 L9 L15 L13"/>
    </vehicle>
    <vehicle id="882" depart="882.00">
        <route edges="L9 L15 L13"/>
    </vehicle>
    <vehicle id="885" depart="885.00">
        <route edges="D8 L8 L9 L11 L1 D1"/>
    </vehicle>