<?xml version="1.0" encoding="UTF-8"?>

<!-- generated on Monday 15 October 2018 12:15:36 PM IST by Eclipse SUMO netedit Version UNKNOWN
<configuration xmlns:xsi="http://www.w3.org/2001/XMLSchema-instance" xsi:noNamespaceSchemaLocation="http://sumo.dlr.de/xsd/netconvertConfiguration.xsd">

    <input>
        <sumo-net-file value="/home/falcon/git/trafficSumo/quickstart.net.xml"/>
    </input>

    <output>
        <output-file value="/home/falcon/git/trafficSumo/quickstart.net.xml"/>
        <output.street-names value="true"/>
    </output>

    <processing>
        <offset.disable-normalization value="true"/>
        <lefthand value="false"/>
    </processing>

    <junctions>
        <no-internal-links value="true"/>
        <no-turnarounds value="true"/>
        <junctions.corner-detail value="5"/>
        <junctions.limit-turn-speed value="5.5"/>
        <rectangular-lane-cut value="false"/>
    </junctions>

    <pedestrian>
        <walkingareas value="false"/>
    </pedestrian>

</configuration>
-->

<net version="1.0" junctionCornerDetail="5" limitTurnSpeed="5.50" xmlns:xsi="http://www.w3.org/2001/XMLSchema-instance" xsi:noNamespaceSchemaLocation="http://sumo.dlr.de/xsd/net_file.xsd">

    <location netOffset="0.00,0.00" convBoundary="-500.00,-100.00,500.00,100.00" origBoundary="-10000000000.00,-10000000000.00,10000000000.00,10000000000.00" projParameter="!"/>

    <edge id="D1" from="911" to="91" name="D1" priority="3">
        <lane id="D1_0" index="0" speed="13.89" length="200.00" shape="-300.00,108.00 -500.00,108.00"/>
        <lane id="D1_1" index="1" speed="13.89" length="200.00" shape="-300.00,104.80 -500.00,104.80"/>
        <lane id="D1_2" index="2" speed="13.89" length="200.00" shape="-300.00,101.60 -500.00,101.60"/>
    </edge>
    <edge id="D2" from="91" to="911" name="D2" priority="3">
        <lane id="D2_0" index="0" speed="13.89" length="200.00" shape="-500.00,95.20 -300.00,95.20"/>
        <lane id="D2_1" index="1" speed="13.89" length="200.00" shape="-500.00,98.40 -300.00,98.40"/>
    </edge>
    <edge id="D3" from="912" to="92" name="D3" priority="3">
        <lane id="D3_0" index="0" speed="13.89" length="200.00" shape="-300.00,-92.00 -500.00,-92.00"/>
        <lane id="D3_1" index="1" speed="13.89" length="200.00" shape="-300.00,-95.20 -500.00,-95.20"/>
        <lane id="D3_2" index="2" speed="13.89" length="200.00" shape="-300.00,-98.40 -500.00,-98.40"/>
    </edge>
    <edge id="D4" from="92" to="912" name="D4" priority="3">
        <lane id="D4_0" index="0" speed="13.89" length="200.00" shape="-500.00,-104.80 -300.00,-104.80"/>
        <lane id="D4_1" index="1" speed="13.89" length="200.00" shape="-500.00,-101.60 -300.00,-101.60"/>
    </edge>
    <edge id="D5" from="913" to="93" name="D5" priority="3">
        <lane id="D5_0" index="0" speed="13.89" length="200.00" shape="300.00,-108.00 500.00,-108.00"/>
        <lane id="D5_1" index="1" speed="13.89" length="200.00" shape="300.00,-104.80 500.00,-104.80"/>
        <lane id="D5_2" index="2" speed="13.89" length="200.00" shape="300.00,-101.60 500.00,-101.60"/>
    </edge>
    <edge id="D6" from="93" to="913" name="D6" priority="3">
        <lane id="D6_0" index="0" speed="13.89" length="200.00" shape="500.00,-95.20 300.00,-95.20"/>
        <lane id="D6_1" index="1" speed="13.89" length="200.00" shape="500.00,-98.40 300.00,-98.40"/>
    </edge>
    <edge id="D7" from="914" to="94" name="D7" priority="3">
        <lane id="D7_0" index="0" speed="13.89" length="200.00" shape="300.00,92.00 500.00,92.00"/>
        <lane id="D7_1" index="1" speed="13.89" length="200.00" shape="300.00,95.20 500.00,95.20"/>
        <lane id="D7_2" index="2" speed="13.89" length="200.00" shape="300.00,98.40 500.00,98.40"/>
    </edge>
    <edge id="D8" from="94" to="914" name="D8" priority="3">
        <lane id="D8_0" index="0" speed="13.89" length="200.00" shape="500.00,104.80 300.00,104.80"/>
        <lane id="D8_1" index="1" speed="13.89" length="200.00" shape="500.00,101.60 300.00,101.60"/>
    </edge>
    <edge id="L1" from="1" to="911" name="L1" priority="3">
        <lane id="L1_0" index="0" speed="13.89" length="100.00" shape="-204.00,108.00 -300.00,108.00"/>
        <lane id="L1_1" index="1" speed="13.89" length="100.00" shape="-204.00,104.80 -300.00,104.80"/>
        <lane id="L1_2" index="2" speed="13.89" length="100.00" shape="-204.00,101.60 -300.00,101.60"/>
    </edge>
    <edge id="L10" from="6" to="5" name="L10" priority="3">
        <lane id="L10_0" index="0" speed="13.89" length="200.00" shape="13.60,92.00 196.00,92.00"/>
        <lane id="L10_1" index="1" speed="13.89" length="200.00" shape="13.60,95.20 196.00,95.20"/>
        <lane id="L10_2" index="2" speed="13.89" length="200.00" shape="13.60,98.40 196.00,98.40"/>
    </edge>
    <edge id="L11" from="6" to="1" name="L11" priority="3">
        <lane id="L11_0" index="0" speed="13.89" length="200.00" shape="-13.60,108.00 -196.00,108.00"/>
        <lane id="L11_1" index="1" speed="13.89" length="200.00" shape="-13.60,104.80 -196.00,104.80"/>
        <lane id="L11_2" index="2" speed="13.89" length="200.00" shape="-13.60,101.60 -196.00,101.60"/>
    </edge>
    <edge id="L12" from="1" to="6" name="L12" priority="3">
        <lane id="L12_0" index="0" speed="13.89" length="200.00" shape="-196.00,92.00 -13.60,92.00"/>
        <lane id="L12_1" index="1" speed="13.89" length="200.00" shape="-196.00,95.20 -13.60,95.20"/>
        <lane id="L12_2" index="2" speed="13.89" length="200.00" shape="-196.00,98.40 -13.60,98.40"/>
    </edge>
    <edge id="L13" from="3" to="2" name="L13" priority="3">
        <lane id="L13_0" index="0" speed="13.89" length="200.00" shape="-13.60,-92.00 -196.00,-92.00"/>
        <lane id="L13_1" index="1" speed="13.89" length="200.00" shape="-13.60,-95.20 -196.00,-95.20"/>
        <lane id="L13_2" index="2" speed="13.89" length="200.00" shape="-13.60,-98.40 -196.00,-98.40"/>
    </edge>
    <edge id="L14" from="2" to="3" name="L14" priority="3">
        <lane id="L14_0" index="0" speed="13.89" length="200.00" shape="-196.00,-108.00 -13.60,-108.00"/>
        <lane id="L14_1" index="1" speed="13.89" length="200.00" shape="-196.00,-104.80 -13.60,-104.80"/>
        <lane id="L14_2" index="2" speed="13.89" length="200.00" shape="-196.00,-101.60 -13.60,-101.60"/>
    </edge>
    <edge id="L15" from="6" to="3" name="L15" priority="2">
        <lane id="L15_0" index="0" speed="13.89" length="200.00" shape="-8.00,86.40 -8.00,-86.40"/>
        <lane id="L15_1" index="1" speed="13.89" length="200.00" shape="-4.80,86.40 -4.80,-86.40"/>
        <lane id="L15_2" index="2" speed="13.89" length="200.00" shape="-1.60,86.40 -1.60,-86.40"/>
    </edge>
    <edge id="L16" from="3" to="6" name="L16" priority="2">
        <lane id="L16_0" index="0" speed="13.89" length="200.00" shape="8.00,-86.40 8.00,86.40"/>
        <lane id="L16_1" index="1" speed="13.89" length="200.00" shape="4.80,-86.40 4.80,86.40"/>
        <lane id="L16_2" index="2" speed="13.89" length="200.00" shape="1.60,-86.40 1.60,86.40"/>
    </edge>
    <edge id="L17" from="4" to="3" name="L17" priority="3">
        <lane id="L17_0" index="0" speed="13.89" length="200.00" shape="196.00,-92.00 13.60,-92.00"/>
        <lane id="L17_1" index="1" speed="13.89" length="200.00" shape="196.00,-95.20 13.60,-95.20"/>
        <lane id="L17_2" index="2" speed="13.89" length="200.00" shape="196.00,-98.40 13.60,-98.40"/>
    </edge>
    <edge id="L18" from="3" to="4" name="L18" priority="3">
        <lane id="L18_0" index="0" speed="13.89" length="200.00" shape="13.60,-108.00 196.00,-108.00"/>
        <lane id="L18_1" index="1" speed="13.89" length="200.00" shape="13.60,-104.80 196.00,-104.80"/>
        <lane id="L18_2" index="2" speed="13.89" length="200.00" shape="13.60,-101.60 196.00,-101.60"/>
    </edge>
    <edge id="L2" from="911" to="1" name="L2" priority="3">
        <lane id="L2_0" index="0" speed="13.89" length="100.00" shape="-300.00,95.20 -204.00,95.20"/>
        <lane id="L2_1" index="1" speed="13.89" length="100.00" shape="-300.00,98.40 -204.00,98.40"/>
    </edge>
    <edge id="L3" from="2" to="912" name="L3" priority="3">
        <lane id="L3_0" index="0" speed="13.89" length="100.00" shape="-204.00,-92.00 -300.00,-92.00"/>
        <lane id="L3_1" index="1" speed="13.89" length="100.00" shape="-204.00,-95.20 -300.00,-95.20"/>
        <lane id="L3_2" index="2" speed="13.89" length="100.00" shape="-204.00,-98.40 -300.00,-98.40"/>
    </edge>
    <edge id="L4" from="912" to="2" name="L4" priority="3">
        <lane id="L4_0" index="0" speed="13.89" length="100.00" shape="-300.00,-104.80 -204.00,-104.80"/>
        <lane id="L4_1" index="1" speed="13.89" length="100.00" shape="-300.00,-101.60 -204.00,-101.60"/>
    </edge>
    <edge id="L5" from="4" to="913" name="L5" priority="3">
        <lane id="L5_0" index="0" speed="13.89" length="100.00" shape="204.00,-108.00 300.00,-108.00"/>
        <lane id="L5_1" index="1" speed="13.89" length="100.00" shape="204.00,-104.80 300.00,-104.80"/>
        <lane id="L5_2" index="2" speed="13.89" length="100.00" shape="204.00,-101.60 300.00,-101.60"/>
    </edge>
    <edge id="L6" from="913" to="4" name="L6" priority="3">
        <lane id="L6_0" index="0" speed="13.89" length="100.00" shape="300.00,-95.20 204.00,-95.20"/>
        <lane id="L6_1" index="1" speed="13.89" length="100.00" shape="300.00,-98.40 204.00,-98.40"/>
    </edge>
    <edge id="L7" from="5" to="914" name="L7" priority="3">
        <lane id="L7_0" index="0" speed="13.89" length="100.00" shape="204.00,92.00 300.00,92.00"/>
        <lane id="L7_1" index="1" speed="13.89" length="100.00" shape="204.00,95.20 300.00,95.20"/>
        <lane id="L7_2" index="2" speed="13.89" length="100.00" shape="204.00,98.40 300.00,98.40"/>
    </edge>
    <edge id="L8" from="914" to="5" name="L8" priority="3">
        <lane id="L8_0" index="0" speed="13.89" length="100.00" shape="300.00,104.80 204.00,104.80"/>
        <lane id="L8_1" index="1" speed="13.89" length="100.00" shape="300.00,101.60 204.00,101.60"/>
    </edge>
    <edge id="L9" from="5" to="6" name="L9" priority="3">
        <lane id="L9_0" index="0" speed="13.89" length="200.00" shape="196.00,108.00 13.60,108.00"/>
        <lane id="L9_1" index="1" speed="13.89" length="200.00" shape="196.00,104.80 13.60,104.80"/>
        <lane id="L9_2" index="2" speed="13.89" length="200.00" shape="196.00,101.60 13.60,101.60"/>
    </edge>

    <tlLogic id="3" type="static" programID="0" offset="0">
        <phase duration="38" state="sssrrrGGGGGGGGGggg"/>
        <phase duration="3"  state="sssrrryyyyyyyyyggg"/>
        <phase duration="6"  state="sssrrrrrrrrrrrrGGG"/>
        <phase duration="3"  state="sssrrrrrrrrrrrryyy"/>
        <phase duration="37" state="GGGGGGGGGrrrrrrrrr"/>
        <phase duration="3"  state="yyyyyyyyyrrrrrrrrr"/>
    </tlLogic>
    <tlLogic id="6" type="static" programID="0" offset="0">
        <phase duration="38" state="GGGggsssrrrGGGGG"/>
        <phase duration="3"  state="yyyggsssrrryyyyy"/>
        <phase duration="6"  state="rrrGGsssrrrrrrrr"/>
        <phase duration="3"  state="rrryysssrrrrrrrr"/>
        <phase duration="37" state="rrrrrGGGGGGGGrrr"/>
        <phase duration="3"  state="rrrrryyyyyyyyrrr"/>
    </tlLogic>

    <junction id="1" type="priority" x="-200.00" y="100.00" incLanes="L11_0 L11_1 L11_2 L2_0 L2_1" intLanes="" shape="-196.00,109.60 -196.00,90.40 -199.03,91.23 -200.97,92.77 -202.21,93.36 -204.00,93.60 -204.00,109.60">
        <request index="0" response="000000" foes="000000"/>
        <request index="1" response="000000" foes="000000"/>
        <request index="2" response="000000" foes="000000"/>
        <request index="3" response="000000" foes="000000"/>
        <request index="4" response="000000" foes="000000"/>
        <request index="5" response="000000" foes="000000"/>
    </junction>
    <junction id="2" type="priority" x="-200.00" y="-100.00" incLanes="L13_0 L13_1 L13_2 L4_0 L4_1" intLanes="" shape="-196.00,-90.40 -196.00,-109.60 -199.03,-108.77 -200.97,-107.23 -202.21,-106.64 -204.00,-106.40 -204.00,-90.40">
        <request index="0" response="000000" foes="000000"/>
        <request index="1" response="000000" foes="000000"/>
        <request index="2" response="000000" foes="000000"/>
        <request index="3" response="000000" foes="000000"/>
        <request index="4" response="000000" foes="000000"/>
        <request index="5" response="000000" foes="000000"/>
    </junction>
    <junction id="3" type="traffic_light_right_on_red" x="0.00" y="-100.00" incLanes="L15_0 L15_1 L15_2 L17_0 L17_1 L17_2 L14_0 L14_1 L14_2" intLanes="" shape="-9.60,-86.40 9.60,-86.40 10.04,-88.62 10.60,-89.40 11.38,-89.96 12.38,-90.29 13.60,-90.40 13.60,-109.60 -13.60,-109.60 -13.60,-90.40 -11.38,-89.96 -10.60,-89.40 -10.04,-88.62 -9.71,-87.62">
        <request index="0"  response="000000111000000000" foes="000000111000000000"/>
        <request index="1"  response="000000111000000000" foes="000000111000000000"/>
        <request index="2"  response="000000111000000000" foes="000000111000000000"/>
        <request index="3"  response="111111111000000000" foes="111111111000000000"/>
        <request index="4"  response="111111111000000000" foes="111111111000000000"/>
        <request index="5"  response="111111111000000000" foes="111111111000000000"/>
        <request index="6"  response="000000000000000000" foes="111000000000000000"/>
        <request index="7"  response="000000000000000000" foes="111000000000000000"/>
        <request index="8"  response="000000000000000000" foes="111000000000000000"/>
        <request index="9"  response="000000000000000000" foes="111000000000111111"/>
        <request index="10" response="000000000000000000" foes="111000000000111111"/>
        <request index="11" response="000000000000000000" foes="111000000000111111"/>
        <request index="12" response="000000000000000000" foes="000000000000111000"/>
        <request index="13" response="000000000000000000" foes="000000000000111000"/>
        <request index="14" response="000000000000000000" foes="000000000000111000"/>
        <request index="15" response="000000111111000000" foes="000000111111111000"/>
        <request index="16" response="000000111111000000" foes="000000111111111000"/>
        <request index="17" response="000000111111000000" foes="000000111111111000"/>
    </junction>
    <junction id="4" type="priority" x="200.00" y="-100.00" incLanes="L6_0 L6_1 L18_0 L18_1 L18_2" intLanes="" shape="204.00,-93.60 204.00,-109.60 196.00,-109.60 196.00,-90.40 199.03,-91.23 200.97,-92.77 202.21,-93.36">
        <request index="0" response="000000" foes="000000"/>
        <request index="1" response="000000" foes="000000"/>
        <request index="2" response="000000" foes="000000"/>
        <request index="3" response="000000" foes="000000"/>
        <request index="4" response="000000" foes="000000"/>
        <request index="5" response="000000" foes="000000"/>
    </junction>
    <junction id="5" type="priority" x="200.00" y="100.00" incLanes="L8_0 L8_1 L10_0 L10_1 L10_2" intLanes="" shape="204.00,106.40 204.00,90.40 196.00,90.40 196.00,109.60 199.03,108.77 200.97,107.23 202.21,106.64">
        <request index="0" response="000000" foes="000000"/>
        <request index="1" response="000000" foes="000000"/>
        <request index="2" response="000000" foes="000000"/>
        <request index="3" response="000000" foes="000000"/>
        <request index="4" response="000000" foes="000000"/>
        <request index="5" response="000000" foes="000000"/>
    </junction>
    <junction id="6" type="traffic_light_right_on_red" x="0.00" y="100.00" incLanes="L9_0 L9_1 L9_2 L16_0 L16_1 L16_2 L12_0 L12_1 L12_2" intLanes="" shape="13.60,109.60 13.60,90.40 11.38,89.96 10.60,89.40 10.04,88.62 9.71,87.62 9.60,86.40 -9.60,86.40 -10.04,88.62 -10.60,89.40 -11.38,89.96 -12.38,90.29 -13.60,90.40 -13.60,109.60">
        <request index="0"  response="0000000000000000" foes="0000011100000000"/>
        <request index="1"  response="0000000000000000" foes="0000011100000000"/>
        <request index="2"  response="0000000000000000" foes="0000011100000000"/>
        <request index="3"  response="1111100000000000" foes="1111111100000000"/>
        <request index="4"  response="1111100000000000" foes="1111111100000000"/>
        <request index="5"  response="1110000000000000" foes="1110000000000000"/>
        <request index="6"  response="1110000000000000" foes="1110000000000000"/>
        <request index="7"  response="1110000000000000" foes="1110000000000000"/>
        <request index="8"  response="1110000000011111" foes="1110000000011111"/>
        <request index="9"  response="1110000000011111" foes="1110000000011111"/>
        <request index="10" response="1110000000011111" foes="1110000000011111"/>
        <request index="11" response="0000000000000000" foes="0000000000011000"/>
        <request index="12" response="0000000000000000" foes="0000000000011000"/>
        <request index="13" response="0000000000000000" foes="0000011111111000"/>
        <request index="14" response="0000000000000000" foes="0000011111111000"/>
        <request index="15" response="0000000000000000" foes="0000011111111000"/>
    </junction>
    <junction id="91" type="dead_end" x="-500.00" y="100.00" incLanes="D1_0 D1_1 D1_2" intLanes="" shape="-500.00,100.00 -500.00,109.60 -500.00,100.00"/>
    <junction id="911" type="priority_stop" x="-300.00" y="100.00" incLanes="L1_0 L1_1 L1_2 D2_0 D2_1" intLanes="" shape="-300.00,109.60 -300.00,93.60 -300.00,109.60">
        <request index="0" response="00000" foes="00000"/>
        <request index="1" response="00000" foes="00000"/>
        <request index="2" response="00000" foes="00000"/>
        <request index="3" response="00000" foes="00000"/>
        <request index="4" response="00000" foes="00000"/>
    </junction>
    <junction id="912" type="priority" x="-300.00" y="-100.00" incLanes="L3_0 L3_1 L3_2 D4_0 D4_1" intLanes="" shape="-300.00,-90.40 -300.00,-106.40 -300.00,-90.40">
        <request index="0" response="00000" foes="00000"/>
        <request index="1" response="00000" foes="00000"/>
        <request index="2" response="00000" foes="00000"/>
        <request index="3" response="00000" foes="00000"/>
        <request index="4" response="00000" foes="00000"/>
    </junction>
    <junction id="913" type="priority" x="300.00" y="-100.00" incLanes="D6_0 D6_1 L5_0 L5_1 L5_2" intLanes="" shape="300.00,-93.60 300.00,-109.60 300.00,-93.60">
        <request index="0" response="00000" foes="00000"/>
        <request index="1" response="00000" foes="00000"/>
        <request index="2" response="00000" foes="00000"/>
        <request index="3" response="00000" foes="00000"/>
        <request index="4" response="00000" foes="00000"/>
    </junction>
    <junction id="914" type="priority" x="300.00" y="100.00" incLanes="D8_0 D8_1 L7_0 L7_1 L7_2" intLanes="" shape="300.00,106.40 300.00,90.40 300.00,106.40">
        <request index="0" response="00000" foes="00000"/>
        <request index="1" response="00000" foes="00000"/>
        <request index="2" response="00000" foes="00000"/>
        <request index="3" response="00000" foes="00000"/>
        <request index="4" response="00000" foes="00000"/>
    </junction>
    <junction id="92" type="dead_end" x="-500.00" y="-100.00" incLanes="D3_0 D3_1 D3_2" intLanes="" shape="-500.00,-100.00 -500.00,-90.40 -500.00,-100.00"/>
    <junction id="93" type="dead_end" x="500.00" y="-100.00" incLanes="D5_0 D5_1 D5_2" intLanes="" shape="500.00,-100.00 500.00,-109.60 500.00,-100.00"/>
    <junction id="94" type="dead_end" x="500.00" y="100.00" incLanes="D7_0 D7_1 D7_2" intLanes="" shape="500.00,100.00 500.00,90.40 500.00,100.00"/>

    <connection from="D2" to="L2" fromLane="0" toLane="0" dir="s" state="M"/>
    <connection from="D2" to="L2" fromLane="1" toLane="1" dir="s" state="M"/>
    <connection from="D4" to="L4" fromLane="0" toLane="0" dir="s" state="M"/>
    <connection from="D4" to="L4" fromLane="1" toLane="1" dir="s" state="M"/>
    <connection from="D6" to="L6" fromLane="0" toLane="0" dir="s" state="M"/>
    <connection from="D6" to="L6" fromLane="1" toLane="1" dir="s" state="M"/>
    <connection from="D8" to="L8" fromLane="0" toLane="0" dir="s" state="M"/>
    <connection from="D8" to="L8" fromLane="1" toLane="1" dir="s" state="M"/>
    <connection from="L1" to="D1" fromLane="0" toLane="0" dir="s" state="M"/>
    <connection from="L1" to="D1" fromLane="1" toLane="1" dir="s" state="M"/>
    <connection from="L1" to="D1" fromLane="2" toLane="2" dir="s" state="M"/>
    <connection from="L10" to="L7" fromLane="0" toLane="0" dir="s" state="M"/>
    <connection from="L10" to="L7" fromLane="1" toLane="1" dir="s" state="M"/>
    <connection from="L10" to="L7" fromLane="2" toLane="2" dir="s" state="M"/>
    <connection from="L11" to="L1" fromLane="0" toLane="0" dir="s" state="M"/>
    <connection from="L11" to="L1" fromLane="1" toLane="1" dir="s" state="M"/>
    <connection from="L11" to="L1" fromLane="2" toLane="2" dir="s" state="M"/>
    <connection from="L12" to="L15" fromLane="0" toLane="0" tl="6" linkIndex="11" dir="r" state="O"/>
    <connection from="L12" to="L15" fromLane="1" toLane="1" tl="6" linkIndex="12" dir="r" state="O"/>
    <connection from="L12" to="L10" fromLane="1" toLane="0" tl="6" linkIndex="13" dir="s" state="O"/>
    <connection from="L12" to="L10" fromLane="1" toLane="1" tl="6" linkIndex="14" dir="s" state="O"/>
    <connection from="L12" to="L10" fromLane="2" toLane="2" tl="6" linkIndex="15" dir="s" state="O"/>
    <connection from="L13" to="L3" fromLane="0" toLane="0" dir="s" state="M"/>
    <connection from="L13" to="L3" fromLane="1" toLane="1" dir="s" state="M"/>
    <connection from="L13" to="L3" fromLane="2" toLane="2" dir="s" state="M"/>
    <connection from="L14" to="L18" fromLane="0" toLane="0" tl="3" linkIndex="12" dir="s" state="O"/>
    <connection from="L14" to="L18" fromLane="1" toLane="1" tl="3" linkIndex="13" dir="s" state="O"/>
    <connection from="L14" to="L18" fromLane="1" toLane="2" tl="3" linkIndex="14" dir="s" state="O"/>
    <connection from="L14" to="L16" fromLane="1" toLane="0" tl="3" linkIndex="15" dir="l" state="o"/>
    <connection from="L14" to="L16" fromLane="1" toLane="1" tl="3" linkIndex="16" dir="l" state="o"/>
    <connection from="L14" to="L16" fromLane="2" toLane="2" tl="3" linkIndex="17" dir="l" state="o"/>
    <connection from="L15" to="L13" fromLane="0" toLane="0" tl="3" linkIndex="0" dir="r" state="o"/>
    <connection from="L15" to="L13" fromLane="1" toLane="1" tl="3" linkIndex="1" dir="r" state="o"/>
    <connection from="L15" to="L13" fromLane="1" toLane="2" tl="3" linkIndex="2" dir="r" state="o"/>
    <connection from="L15" to="L18" fromLane="1" toLane="0" tl="3" linkIndex="3" dir="l" state="o"/>
    <connection from="L15" to="L18" fromLane="1" toLane="1" tl="3" linkIndex="4" dir="l" state="o"/>
    <connection from="L15" to="L18" fromLane="2" toLane="2" tl="3" linkIndex="5" dir="l" state="o"/>
    <connection from="L16" to="L10" fromLane="0" toLane="0" tl="6" linkIndex="5" dir="r" state="o"/>
    <connection from="L16" to="L10" fromLane="1" toLane="1" tl="6" linkIndex="6" dir="r" state="o"/>
    <connection from="L16" to="L10" fromLane="1" toLane="2" tl="6" linkIndex="7" dir="r" state="o"/>
    <connection from="L16" to="L11" fromLane="1" toLane="0" tl="6" linkIndex="8" dir="l" state="o"/>
    <connection from="L16" to="L11" fromLane="1" toLane="1" tl="6" linkIndex="9" dir="l" state="o"/>
    <connection from="L16" to="L11" fromLane="2" toLane="2" tl="6" linkIndex="10" dir="l" state="o"/>
    <connection from="L17" to="L16" fromLane="0" toLane="0" tl="3" linkIndex="6" dir="r" state="O"/>
    <connection from="L17" to="L16" fromLane="1" toLane="1" tl="3" linkIndex="7" dir="r" state="O"/>
    <connection from="L17" to="L16" fromLane="1" toLane="2" tl="3" linkIndex="8" dir="r" state="O"/>
    <connection from="L17" to="L13" fromLane="1" toLane="0" tl="3" linkIndex="9" dir="s" state="O"/>
    <connection from="L17" to="L13" fromLane="1" toLane="1" tl="3" linkIndex="10" dir="s" state="O"/>
    <connection from="L17" to="L13" fromLane="2" toLane="2" tl="3" linkIndex="11" dir="s" state="O"/>
    <connection from="L18" to="L5" fromLane="0" toLane="0" dir="s" state="M"/>
    <connection from="L18" to="L5" fromLane="1" toLane="1" dir="s" state="M"/>
    <connection from="L18" to="L5" fromLane="2" toLane="2" dir="s" state="M"/>
    <connection from="L2" to="L12" fromLane="0" toLane="0" dir="s" state="M"/>
    <connection from="L2" to="L12" fromLane="1" toLane="1" dir="s" state="M"/>
    <connection from="L2" to="L12" fromLane="1" toLane="2" dir="s" state="M"/>
    <connection from="L3" to="D3" fromLane="0" toLane="0" dir="s" state="M"/>
    <connection from="L3" to="D3" fromLane="1" toLane="1" dir="s" state="M"/>
    <connection from="L3" to="D3" fromLane="2" toLane="2" dir="s" state="M"/>
    <connection from="L4" to="L14" fromLane="0" toLane="0" dir="s" state="M"/>
    <connection from="L4" to="L14" fromLane="1" toLane="1" dir="s" state="M"/>
    <connection from="L4" to="L14" fromLane="1" toLane="2" dir="s" state="M"/>
    <connection from="L5" to="D5" fromLane="0" toLane="0" dir="s" state="M"/>
    <connection from="L5" to="D5" fromLane="1" toLane="1" dir="s" state="M"/>
    <connection from="L5" to="D5" fromLane="2" toLane="2" dir="s" state="M"/>
    <connection from="L6" to="L17" fromLane="0" toLane="0" dir="s" state="M"/>
    <connection from="L6" to="L17" fromLane="1" toLane="1" dir="s" state="M"/>
    <connection from="L6" to="L17" fromLane="1" toLane="2" dir="s" state="M"/>
    <connection from="L7" to="D7" fromLane="0" toLane="0" dir="s" state="M"/>
    <connection from="L7" to="D7" fromLane="1" toLane="1" dir="s" state="M"/>
    <connection from="L7" to="D7" fromLane="2" toLane="2" dir="s" state="M"/>
    <connection from="L8" to="L9" fromLane="0" toLane="0" dir="s" state="M"/>
    <connection from="L8" to="L9" fromLane="1" toLane="1" dir="s" state="M"/>
    <connection from="L8" to="L9" fromLane="1" toLane="2" dir="s" state="M"/>
    <connection from="L9" to="L11" fromLane="0" toLane="0" tl="6" linkIndex="0" dir="s" state="O"/>
    <connection from="L9" to="L11" fromLane="1" toLane="1" tl="6" linkIndex="1" dir="s" state="O"/>
    <connection from="L9" to="L11" fromLane="1" toLane="2" tl="6" linkIndex="2" dir="s" state="O"/>
    <connection from="L9" to="L15" fromLane="1" toLane="1" tl="6" linkIndex="3" dir="l" state="o"/>
    <connection from="L9" to="L15" fromLane="2" toLane="2" tl="6" linkIndex="4" dir="l" state="o"/>

</net>
