<?xml version="1.0" encoding="UTF-8"?>

<!-- generated on Monday 15 October 2018 04:17:52 PM IST by Eclipse SUMO netedit Version UNKNOWN
<configuration xmlns:xsi="http://www.w3.org/2001/XMLSchema-instance" xsi:noNamespaceSchemaLocation="http://sumo.dlr.de/xsd/netconvertConfiguration.xsd">

    <input>
        <sumo-net-file value="threeJunctions.net.xml"/>
    </input>

    <output>
        <output-file value="threeJunctions.net.xml"/>
    </output>

    <processing>
        <offset.disable-normalization value="true"/>
        <lefthand value="false"/>
    </processing>

    <junctions>
        <no-turnarounds value="true"/>
        <junctions.corner-detail value="5"/>
        <junctions.limit-turn-speed value="5.5"/>
        <rectangular-lane-cut value="false"/>
    </junctions>

    <pedestrian>
        <walkingareas value="false"/>
    </pedestrian>

</configuration>
-->

<net version="1.0" junctionCornerDetail="5" limitTurnSpeed="5.50" xmlns:xsi="http://www.w3.org/2001/XMLSchema-instance" xsi:noNamespaceSchemaLocation="http://sumo.dlr.de/xsd/net_file.xsd">

    <location netOffset="0.00,0.00" convBoundary="0.00,150.00,600.00,450.00" origBoundary="-10000000000.00,-10000000000.00,10000000000.00,10000000000.00" projParameter="!"/>

    <edge id=":gneJ0_0" function="internal">
        <lane id=":gneJ0_0_0" index="0" speed="6.43" length="8.87" width="3.00" shape="145.50,310.00 145.16,307.59 144.12,305.88 142.41,304.84 140.00,304.50"/>
    </edge>
    <edge id=":gneJ0_1" function="internal">
        <lane id=":gneJ0_1_0" index="0" speed="7.21" length="11.39" width="3.00" shape="145.50,310.00 145.16,306.28 144.12,303.62 142.41,302.03 140.00,301.50"/>
    </edge>
    <edge id=":gneJ0_2" function="internal">
        <lane id=":gneJ0_2_0" index="0" speed="13.89" length="20.00" width="3.00" shape="145.50,310.00 145.50,290.00"/>
        <lane id=":gneJ0_2_1" index="1" speed="13.89" length="20.00" width="3.00" shape="148.50,310.00 148.50,290.00"/>
    </edge>
    <edge id=":gneJ0_4" function="internal">
        <lane id=":gneJ0_4_0" index="0" speed="9.62" length="8.20" width="3.00" shape="148.50,310.00 149.22,303.66 150.00,302.01"/>
    </edge>
    <edge id=":gneJ0_5" function="internal">
        <lane id=":gneJ0_5_0" index="0" speed="9.06" length="6.60" width="3.00" shape="148.50,310.00 149.22,304.97 150.00,303.67"/>
    </edge>
    <edge id=":gneJ0_24" function="internal">
        <lane id=":gneJ0_24_0" index="0" speed="9.62" length="12.82" width="3.00" shape="150.00,302.01 151.38,299.12 154.97,296.41 160.00,295.50"/>
    </edge>
    <edge id=":gneJ0_25" function="internal">
        <lane id=":gneJ0_25_0" index="0" speed="9.06" length="11.95" width="3.00" shape="150.00,303.67 151.38,301.38 154.97,299.22 160.00,298.50"/>
    </edge>
    <edge id=":gneJ0_6" function="internal">
        <lane id=":gneJ0_6_0" index="0" speed="6.43" length="8.87" width="3.00" shape="160.00,304.50 157.59,304.84 155.88,305.88 154.84,307.59 154.50,310.00"/>
    </edge>
    <edge id=":gneJ0_7" function="internal">
        <lane id=":gneJ0_7_0" index="0" speed="7.21" length="11.39" width="3.00" shape="160.00,304.50 156.28,304.84 153.62,305.88 152.03,307.59 151.50,310.00"/>
    </edge>
    <edge id=":gneJ0_8" function="internal">
        <lane id=":gneJ0_8_0" index="0" speed="13.89" length="20.00" width="3.00" shape="160.00,304.50 140.00,304.50"/>
        <lane id=":gneJ0_8_1" index="1" speed="13.89" length="20.00" width="3.00" shape="160.00,301.50 140.00,301.50"/>
    </edge>
    <edge id=":gneJ0_10" function="internal">
        <lane id=":gneJ0_10_0" index="0" speed="9.62" length="8.20" width="3.00" shape="160.00,301.50 153.66,300.78 152.01,300.00"/>
    </edge>
    <edge id=":gneJ0_11" function="internal">
        <lane id=":gneJ0_11_0" index="0" speed="9.06" length="6.60" width="3.00" shape="160.00,301.50 154.97,300.78 153.67,300.00"/>
    </edge>
    <edge id=":gneJ0_26" function="internal">
        <lane id=":gneJ0_26_0" index="0" speed="9.62" length="12.82" width="3.00" shape="152.01,300.00 149.12,298.62 146.41,295.03 145.50,290.00"/>
    </edge>
    <edge id=":gneJ0_27" function="internal">
        <lane id=":gneJ0_27_0" index="0" speed="9.06" length="11.95" width="3.00" shape="153.67,300.00 151.38,298.62 149.22,295.03 148.50,290.00"/>
    </edge>
    <edge id=":gneJ0_12" function="internal">
        <lane id=":gneJ0_12_0" index="0" speed="6.43" length="8.87" width="3.00" shape="154.50,290.00 154.84,292.41 155.88,294.12 157.59,295.16 160.00,295.50"/>
    </edge>
    <edge id=":gneJ0_13" function="internal">
        <lane id=":gneJ0_13_0" index="0" speed="7.21" length="11.39" width="3.00" shape="154.50,290.00 154.84,293.72 155.88,296.38 157.59,297.97 160.00,298.50"/>
    </edge>
    <edge id=":gneJ0_14" function="internal">
        <lane id=":gneJ0_14_0" index="0" speed="13.89" length="20.00" width="3.00" shape="154.50,290.00 154.50,310.00"/>
        <lane id=":gneJ0_14_1" index="1" speed="13.89" length="20.00" width="3.00" shape="151.50,290.00 151.50,310.00"/>
    </edge>
    <edge id=":gneJ0_16" function="internal">
        <lane id=":gneJ0_16_0" index="0" speed="9.62" length="8.20" width="3.00" shape="151.50,290.00 150.78,296.34 150.00,297.99"/>
    </edge>
    <edge id=":gneJ0_17" function="internal">
        <lane id=":gneJ0_17_0" index="0" speed="9.06" length="6.60" width="3.00" shape="151.50,290.00 150.78,295.03 150.00,296.33"/>
    </edge>
    <edge id=":gneJ0_28" function="internal">
        <lane id=":gneJ0_28_0" index="0" speed="9.62" length="12.82" width="3.00" shape="150.00,297.99 148.62,300.88 145.03,303.59 140.00,304.50"/>
    </edge>
    <edge id=":gneJ0_29" function="internal">
        <lane id=":gneJ0_29_0" index="0" speed="9.06" length="11.95" width="3.00" shape="150.00,296.33 148.62,298.62 145.03,300.78 140.00,301.50"/>
    </edge>
    <edge id=":gneJ0_18" function="internal">
        <lane id=":gneJ0_18_0" index="0" speed="6.43" length="8.87" width="3.00" shape="140.00,295.50 142.41,295.16 144.12,294.12 145.16,292.41 145.50,290.00"/>
    </edge>
    <edge id=":gneJ0_19" function="internal">
        <lane id=":gneJ0_19_0" index="0" speed="7.21" length="11.39" width="3.00" shape="140.00,295.50 143.72,295.16 146.38,294.12 147.97,292.41 148.50,290.00"/>
    </edge>
    <edge id=":gneJ0_20" function="internal">
        <lane id=":gneJ0_20_0" index="0" speed="13.89" length="20.00" width="3.00" shape="140.00,295.50 160.00,295.50"/>
        <lane id=":gneJ0_20_1" index="1" speed="13.89" length="20.00" width="3.00" shape="140.00,298.50 160.00,298.50"/>
    </edge>
    <edge id=":gneJ0_22" function="internal">
        <lane id=":gneJ0_22_0" index="0" speed="9.62" length="8.20" width="3.00" shape="140.00,298.50 146.34,299.22 147.99,300.00"/>
    </edge>
    <edge id=":gneJ0_23" function="internal">
        <lane id=":gneJ0_23_0" index="0" speed="9.06" length="6.60" width="3.00" shape="140.00,298.50 145.03,299.22 146.33,300.00"/>
    </edge>
    <edge id=":gneJ0_30" function="internal">
        <lane id=":gneJ0_30_0" index="0" speed="9.62" length="12.82" width="3.00" shape="147.99,300.00 150.88,301.38 153.59,304.97 154.50,310.00"/>
    </edge>
    <edge id=":gneJ0_31" function="internal">
        <lane id=":gneJ0_31_0" index="0" speed="9.06" length="11.95" width="3.00" shape="146.33,300.00 148.62,301.38 150.78,304.97 151.50,310.00"/>
    </edge>
    <edge id=":gneJ1_0" function="internal">
        <lane id=":gneJ1_0_0" index="0" speed="6.43" length="8.87" width="3.00" shape="295.50,310.00 295.16,307.59 294.12,305.88 292.41,304.84 290.00,304.50"/>
    </edge>
    <edge id=":gneJ1_1" function="internal">
        <lane id=":gneJ1_1_0" index="0" speed="7.21" length="11.39" width="3.00" shape="295.50,310.00 295.16,306.28 294.12,303.62 292.41,302.03 290.00,301.50"/>
    </edge>
    <edge id=":gneJ1_2" function="internal">
        <lane id=":gneJ1_2_0" index="0" speed="13.89" length="20.00" width="3.00" shape="295.50,310.00 295.50,290.00"/>
        <lane id=":gneJ1_2_1" index="1" speed="13.89" length="20.00" width="3.00" shape="298.50,310.00 298.50,290.00"/>
    </edge>
    <edge id=":gneJ1_4" function="internal">
        <lane id=":gneJ1_4_0" index="0" speed="9.62" length="8.20" width="3.00" shape="298.50,310.00 299.22,303.66 300.00,302.01"/>
    </edge>
    <edge id=":gneJ1_5" function="internal">
        <lane id=":gneJ1_5_0" index="0" speed="9.06" length="6.60" width="3.00" shape="298.50,310.00 299.22,304.97 300.00,303.67"/>
    </edge>
    <edge id=":gneJ1_24" function="internal">
        <lane id=":gneJ1_24_0" index="0" speed="9.62" length="12.82" width="3.00" shape="300.00,302.01 301.38,299.12 304.97,296.41 310.00,295.50"/>
    </edge>
    <edge id=":gneJ1_25" function="internal">
        <lane id=":gneJ1_25_0" index="0" speed="9.06" length="11.95" width="3.00" shape="300.00,303.67 301.38,301.38 304.97,299.22 310.00,298.50"/>
    </edge>
    <edge id=":gneJ1_6" function="internal">
        <lane id=":gneJ1_6_0" index="0" speed="6.43" length="8.87" width="3.00" shape="310.00,304.50 307.59,304.84 305.88,305.88 304.84,307.59 304.50,310.00"/>
    </edge>
    <edge id=":gneJ1_7" function="internal">
        <lane id=":gneJ1_7_0" index="0" speed="7.21" length="11.39" width="3.00" shape="310.00,304.50 306.28,304.84 303.62,305.88 302.03,307.59 301.50,310.00"/>
    </edge>
    <edge id=":gneJ1_8" function="internal">
        <lane id=":gneJ1_8_0" index="0" speed="13.89" length="20.00" width="3.00" shape="310.00,304.50 290.00,304.50"/>
        <lane id=":gneJ1_8_1" index="1" speed="13.89" length="20.00" width="3.00" shape="310.00,301.50 290.00,301.50"/>
    </edge>
    <edge id=":gneJ1_10" function="internal">
        <lane id=":gneJ1_10_0" index="0" speed="9.62" length="8.20" width="3.00" shape="310.00,301.50 303.66,300.78 302.01,300.00"/>
    </edge>
    <edge id=":gneJ1_11" function="internal">
        <lane id=":gneJ1_11_0" index="0" speed="9.06" length="6.60" width="3.00" shape="310.00,301.50 304.97,300.78 303.67,300.00"/>
    </edge>
    <edge id=":gneJ1_26" function="internal">
        <lane id=":gneJ1_26_0" index="0" speed="9.62" length="12.82" width="3.00" shape="302.01,300.00 299.12,298.62 296.41,295.03 295.50,290.00"/>
    </edge>
    <edge id=":gneJ1_27" function="internal">
        <lane id=":gneJ1_27_0" index="0" speed="9.06" length="11.95" width="3.00" shape="303.67,300.00 301.38,298.62 299.22,295.03 298.50,290.00"/>
    </edge>
    <edge id=":gneJ1_12" function="internal">
        <lane id=":gneJ1_12_0" index="0" speed="6.43" length="8.87" width="3.00" shape="304.50,290.00 304.84,292.41 305.88,294.12 307.59,295.16 310.00,295.50"/>
    </edge>
    <edge id=":gneJ1_13" function="internal">
        <lane id=":gneJ1_13_0" index="0" speed="7.21" length="11.39" width="3.00" shape="304.50,290.00 304.84,293.72 305.88,296.38 307.59,297.97 310.00,298.50"/>
    </edge>
    <edge id=":gneJ1_14" function="internal">
        <lane id=":gneJ1_14_0" index="0" speed="13.89" length="20.00" width="3.00" shape="304.50,290.00 304.50,310.00"/>
        <lane id=":gneJ1_14_1" index="1" speed="13.89" length="20.00" width="3.00" shape="301.50,290.00 301.50,310.00"/>
    </edge>
    <edge id=":gneJ1_16" function="internal">
        <lane id=":gneJ1_16_0" index="0" speed="9.62" length="8.20" width="3.00" shape="301.50,290.00 300.78,296.34 300.00,297.99"/>
    </edge>
    <edge id=":gneJ1_17" function="internal">
        <lane id=":gneJ1_17_0" index="0" speed="9.06" length="6.60" width="3.00" shape="301.50,290.00 300.78,295.03 300.00,296.33"/>
    </edge>
    <edge id=":gneJ1_28" function="internal">
        <lane id=":gneJ1_28_0" index="0" speed="9.62" length="12.82" width="3.00" shape="300.00,297.99 298.62,300.88 295.03,303.59 290.00,304.50"/>
    </edge>
    <edge id=":gneJ1_29" function="internal">
        <lane id=":gneJ1_29_0" index="0" speed="9.06" length="11.95" width="3.00" shape="300.00,296.33 298.62,298.62 295.03,300.78 290.00,301.50"/>
    </edge>
    <edge id=":gneJ1_18" function="internal">
        <lane id=":gneJ1_18_0" index="0" speed="6.43" length="8.87" width="3.00" shape="290.00,295.50 292.41,295.16 294.12,294.12 295.16,292.41 295.50,290.00"/>
    </edge>
    <edge id=":gneJ1_19" function="internal">
        <lane id=":gneJ1_19_0" index="0" speed="7.21" length="11.39" width="3.00" shape="290.00,295.50 293.72,295.16 296.38,294.12 297.97,292.41 298.50,290.00"/>
    </edge>
    <edge id=":gneJ1_20" function="internal">
        <lane id=":gneJ1_20_0" index="0" speed="13.89" length="20.00" width="3.00" shape="290.00,295.50 310.00,295.50"/>
        <lane id=":gneJ1_20_1" index="1" speed="13.89" length="20.00" width="3.00" shape="290.00,298.50 310.00,298.50"/>
    </edge>
    <edge id=":gneJ1_22" function="internal">
        <lane id=":gneJ1_22_0" index="0" speed="9.62" length="8.20" width="3.00" shape="290.00,298.50 296.34,299.22 297.99,300.00"/>
    </edge>
    <edge id=":gneJ1_23" function="internal">
        <lane id=":gneJ1_23_0" index="0" speed="9.06" length="6.60" width="3.00" shape="290.00,298.50 295.03,299.22 296.33,300.00"/>
    </edge>
    <edge id=":gneJ1_30" function="internal">
        <lane id=":gneJ1_30_0" index="0" speed="9.62" length="12.82" width="3.00" shape="297.99,300.00 300.88,301.38 303.59,304.97 304.50,310.00"/>
    </edge>
    <edge id=":gneJ1_31" function="internal">
        <lane id=":gneJ1_31_0" index="0" speed="9.06" length="11.95" width="3.00" shape="296.33,300.00 298.62,301.38 300.78,304.97 301.50,310.00"/>
    </edge>
    <edge id=":gneJ3_0" function="internal">
        <lane id=":gneJ3_0_0" index="0" speed="6.43" length="8.87" width="3.00" shape="445.50,310.00 445.16,307.59 444.12,305.88 442.41,304.84 440.00,304.50"/>
    </edge>
    <edge id=":gneJ3_1" function="internal">
        <lane id=":gneJ3_1_0" index="0" speed="7.21" length="11.39" width="3.00" shape="445.50,310.00 445.16,306.28 444.12,303.62 442.41,302.03 440.00,301.50"/>
    </edge>
    <edge id=":gneJ3_2" function="internal">
        <lane id=":gneJ3_2_0" index="0" speed="13.89" length="20.00" width="3.00" shape="445.50,310.00 445.50,290.00"/>
        <lane id=":gneJ3_2_1" index="1" speed="13.89" length="20.00" width="3.00" shape="448.50,310.00 448.50,290.00"/>
    </edge>
    <edge id=":gneJ3_4" function="internal">
        <lane id=":gneJ3_4_0" index="0" speed="9.62" length="8.20" width="3.00" shape="448.50,310.00 449.22,303.66 450.00,302.01"/>
    </edge>
    <edge id=":gneJ3_5" function="internal">
        <lane id=":gneJ3_5_0" index="0" speed="9.06" length="6.60" width="3.00" shape="448.50,310.00 449.22,304.97 450.00,303.67"/>
    </edge>
    <edge id=":gneJ3_24" function="internal">
        <lane id=":gneJ3_24_0" index="0" speed="9.62" length="12.82" width="3.00" shape="450.00,302.01 451.38,299.12 454.97,296.41 460.00,295.50"/>
    </edge>
    <edge id=":gneJ3_25" function="internal">
        <lane id=":gneJ3_25_0" index="0" speed="9.06" length="11.95" width="3.00" shape="450.00,303.67 451.38,301.38 454.97,299.22 460.00,298.50"/>
    </edge>
    <edge id=":gneJ3_6" function="internal">
        <lane id=":gneJ3_6_0" index="0" speed="6.43" length="8.87" width="3.00" shape="460.00,304.50 457.59,304.84 455.88,305.88 454.84,307.59 454.50,310.00"/>
    </edge>
    <edge id=":gneJ3_7" function="internal">
        <lane id=":gneJ3_7_0" index="0" speed="7.21" length="11.39" width="3.00" shape="460.00,304.50 456.28,304.84 453.62,305.88 452.03,307.59 451.50,310.00"/>
    </edge>
    <edge id=":gneJ3_8" function="internal">
        <lane id=":gneJ3_8_0" index="0" speed="13.89" length="20.00" width="3.00" shape="460.00,304.50 440.00,304.50"/>
        <lane id=":gneJ3_8_1" index="1" speed="13.89" length="20.00" width="3.00" shape="460.00,301.50 440.00,301.50"/>
    </edge>
    <edge id=":gneJ3_10" function="internal">
        <lane id=":gneJ3_10_0" index="0" speed="9.62" length="8.20" width="3.00" shape="460.00,301.50 453.66,300.78 452.01,300.00"/>
    </edge>
    <edge id=":gneJ3_11" function="internal">
        <lane id=":gneJ3_11_0" index="0" speed="9.06" length="6.60" width="3.00" shape="460.00,301.50 454.97,300.78 453.67,300.00"/>
    </edge>
    <edge id=":gneJ3_26" function="internal">
        <lane id=":gneJ3_26_0" index="0" speed="9.62" length="12.82" width="3.00" shape="452.01,300.00 449.12,298.62 446.41,295.03 445.50,290.00"/>
    </edge>
    <edge id=":gneJ3_27" function="internal">
        <lane id=":gneJ3_27_0" index="0" speed="9.06" length="11.95" width="3.00" shape="453.67,300.00 451.38,298.62 449.22,295.03 448.50,290.00"/>
    </edge>
    <edge id=":gneJ3_12" function="internal">
        <lane id=":gneJ3_12_0" index="0" speed="6.43" length="8.87" width="3.00" shape="454.50,290.00 454.84,292.41 455.88,294.12 457.59,295.16 460.00,295.50"/>
    </edge>
    <edge id=":gneJ3_13" function="internal">
        <lane id=":gneJ3_13_0" index="0" speed="7.21" length="11.39" width="3.00" shape="454.50,290.00 454.84,293.72 455.88,296.38 457.59,297.97 460.00,298.50"/>
    </edge>
    <edge id=":gneJ3_14" function="internal">
        <lane id=":gneJ3_14_0" index="0" speed="13.89" length="20.00" width="3.00" shape="454.50,290.00 454.50,310.00"/>
        <lane id=":gneJ3_14_1" index="1" speed="13.89" length="20.00" width="3.00" shape="451.50,290.00 451.50,310.00"/>
    </edge>
    <edge id=":gneJ3_16" function="internal">
        <lane id=":gneJ3_16_0" index="0" speed="9.62" length="8.20" width="3.00" shape="451.50,290.00 450.78,296.34 450.00,297.99"/>
    </edge>
    <edge id=":gneJ3_17" function="internal">
        <lane id=":gneJ3_17_0" index="0" speed="9.06" length="6.60" width="3.00" shape="451.50,290.00 450.78,295.03 450.00,296.33"/>
    </edge>
    <edge id=":gneJ3_28" function="internal">
        <lane id=":gneJ3_28_0" index="0" speed="9.62" length="12.82" width="3.00" shape="450.00,297.99 448.62,300.88 445.03,303.59 440.00,304.50"/>
    </edge>
    <edge id=":gneJ3_29" function="internal">
        <lane id=":gneJ3_29_0" index="0" speed="9.06" length="11.95" width="3.00" shape="450.00,296.33 448.62,298.62 445.03,300.78 440.00,301.50"/>
    </edge>
    <edge id=":gneJ3_18" function="internal">
        <lane id=":gneJ3_18_0" index="0" speed="6.43" length="8.87" width="3.00" shape="440.00,295.50 442.41,295.16 444.12,294.12 445.16,292.41 445.50,290.00"/>
    </edge>
    <edge id=":gneJ3_19" function="internal">
        <lane id=":gneJ3_19_0" index="0" speed="7.21" length="11.39" width="3.00" shape="440.00,295.50 443.72,295.16 446.38,294.12 447.97,292.41 448.50,290.00"/>
    </edge>
    <edge id=":gneJ3_20" function="internal">
        <lane id=":gneJ3_20_0" index="0" speed="13.89" length="20.00" width="3.00" shape="440.00,295.50 460.00,295.50"/>
        <lane id=":gneJ3_20_1" index="1" speed="13.89" length="20.00" width="3.00" shape="440.00,298.50 460.00,298.50"/>
    </edge>
    <edge id=":gneJ3_22" function="internal">
        <lane id=":gneJ3_22_0" index="0" speed="9.62" length="8.20" width="3.00" shape="440.00,298.50 446.34,299.22 447.99,300.00"/>
    </edge>
    <edge id=":gneJ3_23" function="internal">
        <lane id=":gneJ3_23_0" index="0" speed="9.06" length="6.60" width="3.00" shape="440.00,298.50 445.03,299.22 446.33,300.00"/>
    </edge>
    <edge id=":gneJ3_30" function="internal">
        <lane id=":gneJ3_30_0" index="0" speed="9.62" length="12.82" width="3.00" shape="447.99,300.00 450.88,301.38 453.59,304.97 454.50,310.00"/>
    </edge>
    <edge id=":gneJ3_31" function="internal">
        <lane id=":gneJ3_31_0" index="0" speed="9.06" length="11.95" width="3.00" shape="446.33,300.00 448.62,301.38 450.78,304.97 451.50,310.00"/>
    </edge>

    <edge id="-gneE0" from="gneJ1" to="gneJ0" priority="3">
        <lane id="-gneE0_0" index="0" speed="13.89" length="130.00" width="3.00" shape="290.00,304.50 160.00,304.50"/>
        <lane id="-gneE0_1" index="1" speed="13.89" length="130.00" width="3.00" shape="290.00,301.50 160.00,301.50"/>
    </edge>
    <edge id="-gneE1" from="gneJ3" to="gneJ1" priority="3">
        <lane id="-gneE1_0" index="0" speed="13.89" length="130.00" width="3.00" shape="440.00,304.50 310.00,304.50"/>
        <lane id="-gneE1_1" index="1" speed="13.89" length="130.00" width="3.00" shape="440.00,301.50 310.00,301.50"/>
    </edge>
    <edge id="-gneE10" from="gneJ14" to="gneJ1" priority="3">
        <lane id="-gneE10_0" index="0" speed="13.89" length="140.00" width="3.00" shape="295.50,450.00 295.50,310.00"/>
        <lane id="-gneE10_1" index="1" speed="13.89" length="140.00" width="3.00" shape="298.50,450.00 298.50,310.00"/>
    </edge>
    <edge id="-gneE11" from="gneJ15" to="gneJ1" priority="3">
        <lane id="-gneE11_0" index="0" speed="13.89" length="140.00" width="3.00" shape="304.50,150.00 304.50,290.00"/>
        <lane id="-gneE11_1" index="1" speed="13.89" length="140.00" width="3.00" shape="301.50,150.00 301.50,290.00"/>
    </edge>
    <edge id="-gneE12" from="gneJ16" to="gneJ3" priority="3">
        <lane id="-gneE12_0" index="0" speed="13.89" length="140.00" width="3.00" shape="445.50,450.00 445.50,310.00"/>
        <lane id="-gneE12_1" index="1" speed="13.89" length="140.00" width="3.00" shape="448.50,450.00 448.50,310.00"/>
    </edge>
    <edge id="-gneE13" from="gneJ17" to="gneJ3" priority="3">
        <lane id="-gneE13_0" index="0" speed="13.89" length="140.00" width="3.00" shape="454.50,150.00 454.50,290.00"/>
        <lane id="-gneE13_1" index="1" speed="13.89" length="140.00" width="3.00" shape="451.50,150.00 451.50,290.00"/>
    </edge>
    <edge id="-gneE2" from="gneJ4" to="gneJ3" priority="3">
        <lane id="-gneE2_0" index="0" speed="13.89" length="140.00" width="3.00" shape="600.00,304.50 460.00,304.50"/>
        <lane id="-gneE2_1" index="1" speed="13.89" length="140.00" width="3.00" shape="600.00,301.50 460.00,301.50"/>
    </edge>
    <edge id="-gneE5" from="gneJ0" to="gneJ7" priority="3">
        <lane id="-gneE5_0" index="0" speed="13.89" length="140.00" width="3.00" shape="140.00,304.50 0.00,304.50"/>
        <lane id="-gneE5_1" index="1" speed="13.89" length="140.00" width="3.00" shape="140.00,301.50 0.00,301.50"/>
    </edge>
    <edge id="-gneE8" from="gneJ12" to="gneJ0" priority="3">
        <lane id="-gneE8_0" index="0" speed="13.89" length="140.00" width="3.00" shape="145.50,450.00 145.50,310.00"/>
        <lane id="-gneE8_1" index="1" speed="13.89" length="140.00" width="3.00" shape="148.50,450.00 148.50,310.00"/>
    </edge>
    <edge id="-gneE9" from="gneJ13" to="gneJ0" priority="3">
        <lane id="-gneE9_0" index="0" speed="13.89" length="140.00" width="3.00" shape="154.50,150.00 154.50,290.00"/>
        <lane id="-gneE9_1" index="1" speed="13.89" length="140.00" width="3.00" shape="151.50,150.00 151.50,290.00"/>
    </edge>
    <edge id="gneE0" from="gneJ0" to="gneJ1" priority="3">
        <lane id="gneE0_0" index="0" speed="13.89" length="130.00" width="3.00" shape="160.00,295.50 290.00,295.50"/>
        <lane id="gneE0_1" index="1" speed="13.89" length="130.00" width="3.00" shape="160.00,298.50 290.00,298.50"/>
    </edge>
    <edge id="gneE1" from="gneJ1" to="gneJ3" priority="3">
        <lane id="gneE1_0" index="0" speed="13.89" length="130.00" width="3.00" shape="310.00,295.50 440.00,295.50"/>
        <lane id="gneE1_1" index="1" speed="13.89" length="130.00" width="3.00" shape="310.00,298.50 440.00,298.50"/>
    </edge>
    <edge id="gneE10" from="gneJ1" to="gneJ14" priority="3">
        <lane id="gneE10_0" index="0" speed="13.89" length="140.00" width="3.00" shape="304.50,310.00 304.50,450.00"/>
        <lane id="gneE10_1" index="1" speed="13.89" length="140.00" width="3.00" shape="301.50,310.00 301.50,450.00"/>
    </edge>
    <edge id="gneE11" from="gneJ1" to="gneJ15" priority="3">
        <lane id="gneE11_0" index="0" speed="13.89" length="140.00" width="3.00" shape="295.50,290.00 295.50,150.00"/>
        <lane id="gneE11_1" index="1" speed="13.89" length="140.00" width="3.00" shape="298.50,290.00 298.50,150.00"/>
    </edge>
    <edge id="gneE12" from="gneJ3" to="gneJ16" priority="3">
        <lane id="gneE12_0" index="0" speed="13.89" length="140.00" width="3.00" shape="454.50,310.00 454.50,450.00"/>
        <lane id="gneE12_1" index="1" speed="13.89" length="140.00" width="3.00" shape="451.50,310.00 451.50,450.00"/>
    </edge>
    <edge id="gneE13" from="gneJ3" to="gneJ17" priority="3">
        <lane id="gneE13_0" index="0" speed="13.89" length="140.00" width="3.00" shape="445.50,290.00 445.50,150.00"/>
        <lane id="gneE13_1" index="1" speed="13.89" length="140.00" width="3.00" shape="448.50,290.00 448.50,150.00"/>
    </edge>
    <edge id="gneE2" from="gneJ3" to="gneJ4" priority="3">
        <lane id="gneE2_0" index="0" speed="13.89" length="140.00" width="3.00" shape="460.00,295.50 600.00,295.50"/>
        <lane id="gneE2_1" index="1" speed="13.89" length="140.00" width="3.00" shape="460.00,298.50 600.00,298.50"/>
    </edge>
    <edge id="gneE5" from="gneJ7" to="gneJ0" priority="3">
        <lane id="gneE5_0" index="0" speed="13.89" length="140.00" width="3.00" shape="0.00,295.50 140.00,295.50"/>
        <lane id="gneE5_1" index="1" speed="13.89" length="140.00" width="3.00" shape="0.00,298.50 140.00,298.50"/>
    </edge>
    <edge id="gneE8" from="gneJ0" to="gneJ12" priority="3">
        <lane id="gneE8_0" index="0" speed="13.89" length="140.00" width="3.00" shape="154.50,310.00 154.50,450.00"/>
        <lane id="gneE8_1" index="1" speed="13.89" length="140.00" width="3.00" shape="151.50,310.00 151.50,450.00"/>
    </edge>
    <edge id="gneE9" from="gneJ0" to="gneJ13" priority="3">
        <lane id="gneE9_0" index="0" speed="13.89" length="140.00" width="3.00" shape="145.50,290.00 145.50,150.00"/>
        <lane id="gneE9_1" index="1" speed="13.89" length="140.00" width="3.00" shape="148.50,290.00 148.50,150.00"/>
    </edge>

    <tlLogic id="gneJ0" type="static" programID="0" offset="0">
        <phase duration="42" state="GGGGggssrrrrGGGGggssrrrr"/>
        <phase duration="3"  state="yyyyyyssrrrryyyyyyssrrrr"/>
        <phase duration="42" state="ssrrrrGGGGggssrrrrGGGGgg"/>
        <phase duration="3"  state="ssrrrryyyyyyssrrrryyyyyy"/>
    </tlLogic>
    <tlLogic id="gneJ1" type="static" programID="0" offset="0">
        <phase duration="42" state="GGGGggssrrrrGGGGggssrrrr"/>
        <phase duration="3"  state="yyyyyyssrrrryyyyyyssrrrr"/>
        <phase duration="42" state="ssrrrrGGGGggssrrrrGGGGgg"/>
        <phase duration="3"  state="ssrrrryyyyyyssrrrryyyyyy"/>
    </tlLogic>
    <tlLogic id="gneJ3" type="static" programID="0" offset="0">
        <phase duration="42" state="GGGGggssrrrrGGGGggssrrrr"/>
        <phase duration="3"  state="yyyyyyssrrrryyyyyyssrrrr"/>
        <phase duration="42" state="ssrrrrGGGGggssrrrrGGGGgg"/>
        <phase duration="3"  state="ssrrrryyyyyyssrrrryyyyyy"/>
    </tlLogic>

    <junction id="gneJ0" type="traffic_light_right_on_red" x="150.00" y="300.00" incLanes="-gneE8_0 -gneE8_1 -gneE0_0 -gneE0_1 -gneE9_0 -gneE9_1 gneE5_0 gneE5_1" intLanes=":gneJ0_0_0 :gneJ0_1_0 :gneJ0_2_0 :gneJ0_2_1 :gneJ0_24_0 :gneJ0_25_0 :gneJ0_6_0 :gneJ0_7_0 :gneJ0_8_0 :gneJ0_8_1 :gneJ0_26_0 :gneJ0_27_0 :gneJ0_12_0 :gneJ0_13_0 :gneJ0_14_0 :gneJ0_14_1 :gneJ0_28_0 :gneJ0_29_0 :gneJ0_18_0 :gneJ0_19_0 :gneJ0_20_0 :gneJ0_20_1 :gneJ0_30_0 :gneJ0_31_0" shape="144.00,310.00 156.00,310.00 156.44,307.78 157.00,307.00 157.78,306.44 158.78,306.11 160.00,306.00 160.00,294.00 157.78,293.56 157.00,293.00 156.44,292.22 156.11,291.22 156.00,290.00 144.00,290.00 143.56,292.22 143.00,293.00 142.22,293.56 141.22,293.89 140.00,294.00 140.00,306.00 142.22,306.44 143.00,307.00 143.56,307.78 143.89,308.78">
        <request index="0"  response="000000000000001100000000" foes="000000110000001100000000" cont="0"/>
        <request index="1"  response="000000000000001100000000" foes="000000110000001100000000" cont="0"/>
        <request index="2"  response="110000000000110000000000" foes="111111110000111100000000" cont="0"/>
        <request index="3"  response="110000000000110000000000" foes="111111110000111100000000" cont="0"/>
        <request index="4"  response="110000001111110000000000" foes="111100001111111100000000" cont="1"/>
        <request index="5"  response="110000001111110000000000" foes="111100001111111100000000" cont="1"/>
        <request index="6"  response="000000001100000000000000" foes="110000001100000000000000" cont="0"/>
        <request index="7"  response="000000001100000000000000" foes="110000001100000000000000" cont="0"/>
        <request index="8"  response="000000111100000000111111" foes="110000111100000000111111" cont="0"/>
        <request index="9"  response="000000111100000000111111" foes="110000111100000000111111" cont="0"/>
        <request index="10" response="001111111100000000111100" foes="001111111100000000111100" cont="1"/>
        <request index="11" response="001111111100000000111100" foes="001111111100000000111100" cont="1"/>
        <request index="12" response="001100000000000000000000" foes="001100000000000000110000" cont="0"/>
        <request index="13" response="001100000000000000000000" foes="001100000000000000110000" cont="0"/>
        <request index="14" response="110000000000110000000000" foes="111100000000111111110000" cont="0"/>
        <request index="15" response="110000000000110000000000" foes="111100000000111111110000" cont="0"/>
        <request index="16" response="110000000000110000001111" foes="111100000000111100001111" cont="1"/>
        <request index="17" response="110000000000110000001111" foes="111100000000111100001111" cont="1"/>
        <request index="18" response="000000000000000000001100" foes="000000000000110000001100" cont="0"/>
        <request index="19" response="000000000000000000001100" foes="000000000000110000001100" cont="0"/>
        <request index="20" response="000000111111000000111100" foes="000000111111110000111100" cont="0"/>
        <request index="21" response="000000111111000000111100" foes="000000111111110000111100" cont="0"/>